data_image0
_cell_length_a       32.4
_cell_length_b       32.5
_cell_length_c       22.7
_cell_angle_alpha    90
_cell_angle_beta     90
_cell_angle_gamma    90

_symmetry_space_group_name_H-M    "P 1"
_symmetry_int_tables_number       1

loop_
  _symmetry_equiv_pos_as_xyz
  'x, y, z'

loop_
  _atom_site_label
  _atom_site_occupancy
  _atom_site_fract_x
  _atom_site_fract_y
  _atom_site_fract_z
  _atom_site_thermal_displace_type
  _atom_site_B_iso_or_equiv
  _atom_site_type_symbol
  Al1      1.0000 0.00000  0.00000  0.00000  Biso   1.000  Al
  Al2      1.0000 0.00000  0.06231  0.08921  Biso   1.000  Al
  Al3      1.0000 0.06250  0.00000  0.08921  Biso   1.000  Al
  Al4      1.0000 0.06250  0.06231  0.00000  Biso   1.000  Al
  Al5      1.0000 0.00000  0.00000  0.17841  Biso   1.000  Al
  Al6      1.0000 0.00000  0.06231  0.26762  Biso   1.000  Al
  Al7      1.0000 0.06250  0.00000  0.26762  Biso   1.000  Al
  Al8      1.0000 0.06250  0.06231  0.17841  Biso   1.000  Al
  Al9      1.0000 0.00000  0.12462  0.00000  Biso   1.000  Al
  Al10     1.0000 0.00000  0.18692  0.08921  Biso   1.000  Al
  Al11     1.0000 0.06250  0.12462  0.08921  Biso   1.000  Al
  Al12     1.0000 0.06250  0.18692  0.00000  Biso   1.000  Al
  Al13     1.0000 0.00000  0.12462  0.17841  Biso   1.000  Al
  Al14     1.0000 0.00000  0.18692  0.26762  Biso   1.000  Al
  Al15     1.0000 0.06250  0.12462  0.26762  Biso   1.000  Al
  Al16     1.0000 0.06250  0.18692  0.17841  Biso   1.000  Al
  Al17     1.0000 0.00000  0.24923  0.00000  Biso   1.000  Al
  Al18     1.0000 0.00000  0.31154  0.08921  Biso   1.000  Al
  Al19     1.0000 0.06250  0.24923  0.08921  Biso   1.000  Al
  Al20     1.0000 0.06250  0.31154  0.00000  Biso   1.000  Al
  Al21     1.0000 0.00000  0.24923  0.17841  Biso   1.000  Al
  Al22     1.0000 0.00000  0.31154  0.26762  Biso   1.000  Al
  Al23     1.0000 0.06250  0.24923  0.26762  Biso   1.000  Al
  Al24     1.0000 0.06250  0.31154  0.17841  Biso   1.000  Al
  Al25     1.0000 0.00000  0.37385  0.00000  Biso   1.000  Al
  Al26     1.0000 0.00000  0.43615  0.08921  Biso   1.000  Al
  Al27     1.0000 0.06250  0.37385  0.08921  Biso   1.000  Al
  Al28     1.0000 0.06250  0.43615  0.00000  Biso   1.000  Al
  Al29     1.0000 0.00000  0.37385  0.17841  Biso   1.000  Al
  Al30     1.0000 0.00000  0.43615  0.26762  Biso   1.000  Al
  Al31     1.0000 0.06250  0.37385  0.26762  Biso   1.000  Al
  Al32     1.0000 0.06250  0.43615  0.17841  Biso   1.000  Al
  Al33     1.0000 0.00000  0.49846  0.00000  Biso   1.000  Al
  Al34     1.0000 0.00000  0.56077  0.08921  Biso   1.000  Al
  Al35     1.0000 0.06250  0.49846  0.08921  Biso   1.000  Al
  Al36     1.0000 0.06250  0.56077  0.00000  Biso   1.000  Al
  Al37     1.0000 0.00000  0.49846  0.17841  Biso   1.000  Al
  Al38     1.0000 0.00000  0.56077  0.26762  Biso   1.000  Al
  Al39     1.0000 0.06250  0.49846  0.26762  Biso   1.000  Al
  Al40     1.0000 0.06250  0.56077  0.17841  Biso   1.000  Al
  Al41     1.0000 0.00000  0.62308  0.00000  Biso   1.000  Al
  Al42     1.0000 0.00000  0.68538  0.08921  Biso   1.000  Al
  Al43     1.0000 0.06250  0.62308  0.08921  Biso   1.000  Al
  Al44     1.0000 0.06250  0.68538  0.00000  Biso   1.000  Al
  Al45     1.0000 0.00000  0.62308  0.17841  Biso   1.000  Al
  Al46     1.0000 0.00000  0.68538  0.26762  Biso   1.000  Al
  Al47     1.0000 0.06250  0.62308  0.26762  Biso   1.000  Al
  Al48     1.0000 0.06250  0.68538  0.17841  Biso   1.000  Al
  Al49     1.0000 0.00000  0.74769  0.00000  Biso   1.000  Al
  Al50     1.0000 0.00000  0.81000  0.08921  Biso   1.000  Al
  Al51     1.0000 0.06250  0.74769  0.08921  Biso   1.000  Al
  Al52     1.0000 0.06250  0.81000  0.00000  Biso   1.000  Al
  Al53     1.0000 0.00000  0.74769  0.17841  Biso   1.000  Al
  Al54     1.0000 0.00000  0.81000  0.26762  Biso   1.000  Al
  Al55     1.0000 0.06250  0.74769  0.26762  Biso   1.000  Al
  Al56     1.0000 0.06250  0.81000  0.17841  Biso   1.000  Al
  Al57     1.0000 0.00000  0.87231  0.00000  Biso   1.000  Al
  Al58     1.0000 0.00000  0.93462  0.08921  Biso   1.000  Al
  Al59     1.0000 0.06250  0.87231  0.08921  Biso   1.000  Al
  Al60     1.0000 0.06250  0.93462  0.00000  Biso   1.000  Al
  Al61     1.0000 0.00000  0.87231  0.17841  Biso   1.000  Al
  Al62     1.0000 0.00000  0.93462  0.26762  Biso   1.000  Al
  Al63     1.0000 0.06250  0.87231  0.26762  Biso   1.000  Al
  Al64     1.0000 0.06250  0.93462  0.17841  Biso   1.000  Al
  Al65     1.0000 0.12500  0.00000  0.00000  Biso   1.000  Al
  Al66     1.0000 0.12500  0.06231  0.08921  Biso   1.000  Al
  Al67     1.0000 0.18750  0.00000  0.08921  Biso   1.000  Al
  Al68     1.0000 0.18750  0.06231  0.00000  Biso   1.000  Al
  Al69     1.0000 0.12500  0.00000  0.17841  Biso   1.000  Al
  Al70     1.0000 0.12500  0.06231  0.26762  Biso   1.000  Al
  Al71     1.0000 0.18750  0.00000  0.26762  Biso   1.000  Al
  Al72     1.0000 0.18750  0.06231  0.17841  Biso   1.000  Al
  Al73     1.0000 0.12500  0.12462  0.00000  Biso   1.000  Al
  Al74     1.0000 0.12500  0.18692  0.08921  Biso   1.000  Al
  Al75     1.0000 0.18750  0.12462  0.08921  Biso   1.000  Al
  Al76     1.0000 0.18750  0.18692  0.00000  Biso   1.000  Al
  Al77     1.0000 0.12500  0.12462  0.17841  Biso   1.000  Al
  Al78     1.0000 0.12500  0.18692  0.26762  Biso   1.000  Al
  Al79     1.0000 0.18750  0.12462  0.26762  Biso   1.000  Al
  Al80     1.0000 0.18750  0.18692  0.17841  Biso   1.000  Al
  Al81     1.0000 0.12500  0.24923  0.00000  Biso   1.000  Al
  Al82     1.0000 0.12500  0.31154  0.08921  Biso   1.000  Al
  Al83     1.0000 0.18750  0.24923  0.08921  Biso   1.000  Al
  Al84     1.0000 0.18750  0.31154  0.00000  Biso   1.000  Al
  Al85     1.0000 0.12500  0.24923  0.17841  Biso   1.000  Al
  Al86     1.0000 0.12500  0.31154  0.26762  Biso   1.000  Al
  Al87     1.0000 0.18750  0.24923  0.26762  Biso   1.000  Al
  Al88     1.0000 0.18750  0.31154  0.17841  Biso   1.000  Al
  Al89     1.0000 0.12500  0.37385  0.00000  Biso   1.000  Al
  Al90     1.0000 0.12500  0.43615  0.08921  Biso   1.000  Al
  Al91     1.0000 0.18750  0.37385  0.08921  Biso   1.000  Al
  Al92     1.0000 0.18750  0.43615  0.00000  Biso   1.000  Al
  Al93     1.0000 0.12500  0.37385  0.17841  Biso   1.000  Al
  Al94     1.0000 0.12500  0.43615  0.26762  Biso   1.000  Al
  Al95     1.0000 0.18750  0.37385  0.26762  Biso   1.000  Al
  Al96     1.0000 0.18750  0.43615  0.17841  Biso   1.000  Al
  Al97     1.0000 0.12500  0.49846  0.00000  Biso   1.000  Al
  Al98     1.0000 0.12500  0.56077  0.08921  Biso   1.000  Al
  Al99     1.0000 0.18750  0.49846  0.08921  Biso   1.000  Al
  Al100    1.0000 0.18750  0.56077  0.00000  Biso   1.000  Al
  Al101    1.0000 0.12500  0.49846  0.17841  Biso   1.000  Al
  Al102    1.0000 0.12500  0.56077  0.26762  Biso   1.000  Al
  Al103    1.0000 0.18750  0.49846  0.26762  Biso   1.000  Al
  Al104    1.0000 0.18750  0.56077  0.17841  Biso   1.000  Al
  Al105    1.0000 0.12500  0.62308  0.00000  Biso   1.000  Al
  Al106    1.0000 0.12500  0.68538  0.08921  Biso   1.000  Al
  Al107    1.0000 0.18750  0.62308  0.08921  Biso   1.000  Al
  Al108    1.0000 0.18750  0.68538  0.00000  Biso   1.000  Al
  Al109    1.0000 0.12500  0.62308  0.17841  Biso   1.000  Al
  Al110    1.0000 0.12500  0.68538  0.26762  Biso   1.000  Al
  Al111    1.0000 0.18750  0.62308  0.26762  Biso   1.000  Al
  Al112    1.0000 0.18750  0.68538  0.17841  Biso   1.000  Al
  Al113    1.0000 0.12500  0.74769  0.00000  Biso   1.000  Al
  Al114    1.0000 0.12500  0.81000  0.08921  Biso   1.000  Al
  Al115    1.0000 0.18750  0.74769  0.08921  Biso   1.000  Al
  Al116    1.0000 0.18750  0.81000  0.00000  Biso   1.000  Al
  Al117    1.0000 0.12500  0.74769  0.17841  Biso   1.000  Al
  Al118    1.0000 0.12500  0.81000  0.26762  Biso   1.000  Al
  Al119    1.0000 0.18750  0.74769  0.26762  Biso   1.000  Al
  Al120    1.0000 0.18750  0.81000  0.17841  Biso   1.000  Al
  Al121    1.0000 0.12500  0.87231  0.00000  Biso   1.000  Al
  Al122    1.0000 0.12500  0.93462  0.08921  Biso   1.000  Al
  Al123    1.0000 0.18750  0.87231  0.08921  Biso   1.000  Al
  Al124    1.0000 0.18750  0.93462  0.00000  Biso   1.000  Al
  Al125    1.0000 0.12500  0.87231  0.17841  Biso   1.000  Al
  Al126    1.0000 0.12500  0.93462  0.26762  Biso   1.000  Al
  Al127    1.0000 0.18750  0.87231  0.26762  Biso   1.000  Al
  Al128    1.0000 0.18750  0.93462  0.17841  Biso   1.000  Al
  Al129    1.0000 0.25000  0.00000  0.00000  Biso   1.000  Al
  Al130    1.0000 0.25000  0.06231  0.08921  Biso   1.000  Al
  Al131    1.0000 0.31250  0.00000  0.08921  Biso   1.000  Al
  Al132    1.0000 0.31250  0.06231  0.00000  Biso   1.000  Al
  Al133    1.0000 0.25000  0.00000  0.17841  Biso   1.000  Al
  Al134    1.0000 0.25000  0.06231  0.26762  Biso   1.000  Al
  Al135    1.0000 0.31250  0.00000  0.26762  Biso   1.000  Al
  Al136    1.0000 0.31250  0.06231  0.17841  Biso   1.000  Al
  Al137    1.0000 0.25000  0.12462  0.00000  Biso   1.000  Al
  Al138    1.0000 0.25000  0.18692  0.08921  Biso   1.000  Al
  Al139    1.0000 0.31250  0.12462  0.08921  Biso   1.000  Al
  Al140    1.0000 0.31250  0.18692  0.00000  Biso   1.000  Al
  Al141    1.0000 0.25000  0.12462  0.17841  Biso   1.000  Al
  Al142    1.0000 0.25000  0.18692  0.26762  Biso   1.000  Al
  Al143    1.0000 0.31250  0.12462  0.26762  Biso   1.000  Al
  Al144    1.0000 0.31250  0.18692  0.17841  Biso   1.000  Al
  Al145    1.0000 0.25000  0.24923  0.00000  Biso   1.000  Al
  Al146    1.0000 0.25000  0.31154  0.08921  Biso   1.000  Al
  Al147    1.0000 0.31250  0.24923  0.08921  Biso   1.000  Al
  Al148    1.0000 0.31250  0.31154  0.00000  Biso   1.000  Al
  Al149    1.0000 0.25000  0.24923  0.17841  Biso   1.000  Al
  Al150    1.0000 0.25000  0.31154  0.26762  Biso   1.000  Al
  Al151    1.0000 0.31250  0.24923  0.26762  Biso   1.000  Al
  Al152    1.0000 0.31250  0.31154  0.17841  Biso   1.000  Al
  Al153    1.0000 0.25000  0.37385  0.00000  Biso   1.000  Al
  Al154    1.0000 0.25000  0.43615  0.08921  Biso   1.000  Al
  Al155    1.0000 0.31250  0.37385  0.08921  Biso   1.000  Al
  Al156    1.0000 0.31250  0.43615  0.00000  Biso   1.000  Al
  Al157    1.0000 0.25000  0.37385  0.17841  Biso   1.000  Al
  Al158    1.0000 0.25000  0.43615  0.26762  Biso   1.000  Al
  Al159    1.0000 0.31250  0.37385  0.26762  Biso   1.000  Al
  Al160    1.0000 0.31250  0.43615  0.17841  Biso   1.000  Al
  Al161    1.0000 0.25000  0.49846  0.00000  Biso   1.000  Al
  Al162    1.0000 0.25000  0.56077  0.08921  Biso   1.000  Al
  Al163    1.0000 0.31250  0.49846  0.08921  Biso   1.000  Al
  Al164    1.0000 0.31250  0.56077  0.00000  Biso   1.000  Al
  Al165    1.0000 0.25000  0.49846  0.17841  Biso   1.000  Al
  Al166    1.0000 0.25000  0.56077  0.26762  Biso   1.000  Al
  Al167    1.0000 0.31250  0.49846  0.26762  Biso   1.000  Al
  Al168    1.0000 0.31250  0.56077  0.17841  Biso   1.000  Al
  Al169    1.0000 0.25000  0.62308  0.00000  Biso   1.000  Al
  Al170    1.0000 0.25000  0.68538  0.08921  Biso   1.000  Al
  Al171    1.0000 0.31250  0.62308  0.08921  Biso   1.000  Al
  Al172    1.0000 0.31250  0.68538  0.00000  Biso   1.000  Al
  Al173    1.0000 0.25000  0.62308  0.17841  Biso   1.000  Al
  Al174    1.0000 0.25000  0.68538  0.26762  Biso   1.000  Al
  Al175    1.0000 0.31250  0.62308  0.26762  Biso   1.000  Al
  Al176    1.0000 0.31250  0.68538  0.17841  Biso   1.000  Al
  Al177    1.0000 0.25000  0.74769  0.00000  Biso   1.000  Al
  Al178    1.0000 0.25000  0.81000  0.08921  Biso   1.000  Al
  Al179    1.0000 0.31250  0.74769  0.08921  Biso   1.000  Al
  Al180    1.0000 0.31250  0.81000  0.00000  Biso   1.000  Al
  Al181    1.0000 0.25000  0.74769  0.17841  Biso   1.000  Al
  Al182    1.0000 0.25000  0.81000  0.26762  Biso   1.000  Al
  Al183    1.0000 0.31250  0.74769  0.26762  Biso   1.000  Al
  Al184    1.0000 0.31250  0.81000  0.17841  Biso   1.000  Al
  Al185    1.0000 0.25000  0.87231  0.00000  Biso   1.000  Al
  Al186    1.0000 0.25000  0.93462  0.08921  Biso   1.000  Al
  Al187    1.0000 0.31250  0.87231  0.08921  Biso   1.000  Al
  Al188    1.0000 0.31250  0.93462  0.00000  Biso   1.000  Al
  Al189    1.0000 0.25000  0.87231  0.17841  Biso   1.000  Al
  Al190    1.0000 0.25000  0.93462  0.26762  Biso   1.000  Al
  Al191    1.0000 0.31250  0.87231  0.26762  Biso   1.000  Al
  Al192    1.0000 0.31250  0.93462  0.17841  Biso   1.000  Al
  Al193    1.0000 0.37500  0.00000  0.00000  Biso   1.000  Al
  Al194    1.0000 0.37500  0.06231  0.08921  Biso   1.000  Al
  Al195    1.0000 0.43750  0.00000  0.08921  Biso   1.000  Al
  Al196    1.0000 0.43750  0.06231  0.00000  Biso   1.000  Al
  Al197    1.0000 0.37500  0.00000  0.17841  Biso   1.000  Al
  Al198    1.0000 0.37500  0.06231  0.26762  Biso   1.000  Al
  Al199    1.0000 0.43750  0.00000  0.26762  Biso   1.000  Al
  Al200    1.0000 0.43750  0.06231  0.17841  Biso   1.000  Al
  Al201    1.0000 0.37500  0.12462  0.00000  Biso   1.000  Al
  Al202    1.0000 0.37500  0.18692  0.08921  Biso   1.000  Al
  Al203    1.0000 0.43750  0.12462  0.08921  Biso   1.000  Al
  Al204    1.0000 0.43750  0.18692  0.00000  Biso   1.000  Al
  Al205    1.0000 0.37500  0.12462  0.17841  Biso   1.000  Al
  Al206    1.0000 0.37500  0.18692  0.26762  Biso   1.000  Al
  Al207    1.0000 0.43750  0.12462  0.26762  Biso   1.000  Al
  Al208    1.0000 0.43750  0.18692  0.17841  Biso   1.000  Al
  Al209    1.0000 0.37500  0.24923  0.00000  Biso   1.000  Al
  Al210    1.0000 0.37500  0.31154  0.08921  Biso   1.000  Al
  Al211    1.0000 0.43750  0.24923  0.08921  Biso   1.000  Al
  Al212    1.0000 0.43750  0.31154  0.00000  Biso   1.000  Al
  Al213    1.0000 0.37500  0.24923  0.17841  Biso   1.000  Al
  Al214    1.0000 0.37500  0.31154  0.26762  Biso   1.000  Al
  Al215    1.0000 0.43750  0.24923  0.26762  Biso   1.000  Al
  Al216    1.0000 0.43750  0.31154  0.17841  Biso   1.000  Al
  Al217    1.0000 0.37500  0.37385  0.00000  Biso   1.000  Al
  Al218    1.0000 0.37500  0.43615  0.08921  Biso   1.000  Al
  Al219    1.0000 0.43750  0.37385  0.08921  Biso   1.000  Al
  Al220    1.0000 0.43750  0.43615  0.00000  Biso   1.000  Al
  Al221    1.0000 0.37500  0.37385  0.17841  Biso   1.000  Al
  Al222    1.0000 0.37500  0.43615  0.26762  Biso   1.000  Al
  Al223    1.0000 0.43750  0.37385  0.26762  Biso   1.000  Al
  Al224    1.0000 0.43750  0.43615  0.17841  Biso   1.000  Al
  Al225    1.0000 0.37500  0.49846  0.00000  Biso   1.000  Al
  Al226    1.0000 0.37500  0.56077  0.08921  Biso   1.000  Al
  Al227    1.0000 0.43750  0.49846  0.08921  Biso   1.000  Al
  Al228    1.0000 0.43750  0.56077  0.00000  Biso   1.000  Al
  Al229    1.0000 0.37500  0.49846  0.17841  Biso   1.000  Al
  Al230    1.0000 0.37500  0.56077  0.26762  Biso   1.000  Al
  Al231    1.0000 0.43750  0.49846  0.26762  Biso   1.000  Al
  Al232    1.0000 0.43750  0.56077  0.17841  Biso   1.000  Al
  Al233    1.0000 0.37500  0.62308  0.00000  Biso   1.000  Al
  Al234    1.0000 0.37500  0.68538  0.08921  Biso   1.000  Al
  Al235    1.0000 0.43750  0.62308  0.08921  Biso   1.000  Al
  Al236    1.0000 0.43750  0.68538  0.00000  Biso   1.000  Al
  Al237    1.0000 0.37500  0.62308  0.17841  Biso   1.000  Al
  Al238    1.0000 0.37500  0.68538  0.26762  Biso   1.000  Al
  Al239    1.0000 0.43750  0.62308  0.26762  Biso   1.000  Al
  Al240    1.0000 0.43750  0.68538  0.17841  Biso   1.000  Al
  Al241    1.0000 0.37500  0.74769  0.00000  Biso   1.000  Al
  Al242    1.0000 0.37500  0.81000  0.08921  Biso   1.000  Al
  Al243    1.0000 0.43750  0.74769  0.08921  Biso   1.000  Al
  Al244    1.0000 0.43750  0.81000  0.00000  Biso   1.000  Al
  Al245    1.0000 0.37500  0.74769  0.17841  Biso   1.000  Al
  Al246    1.0000 0.37500  0.81000  0.26762  Biso   1.000  Al
  Al247    1.0000 0.43750  0.74769  0.26762  Biso   1.000  Al
  Al248    1.0000 0.43750  0.81000  0.17841  Biso   1.000  Al
  Al249    1.0000 0.37500  0.87231  0.00000  Biso   1.000  Al
  Al250    1.0000 0.37500  0.93462  0.08921  Biso   1.000  Al
  Al251    1.0000 0.43750  0.87231  0.08921  Biso   1.000  Al
  Al252    1.0000 0.43750  0.93462  0.00000  Biso   1.000  Al
  Al253    1.0000 0.37500  0.87231  0.17841  Biso   1.000  Al
  Al254    1.0000 0.37500  0.93462  0.26762  Biso   1.000  Al
  Al255    1.0000 0.43750  0.87231  0.26762  Biso   1.000  Al
  Al256    1.0000 0.43750  0.93462  0.17841  Biso   1.000  Al
  Al257    1.0000 0.50000  0.00000  0.00000  Biso   1.000  Al
  Al258    1.0000 0.50000  0.06231  0.08921  Biso   1.000  Al
  Al259    1.0000 0.56250  0.00000  0.08921  Biso   1.000  Al
  Al260    1.0000 0.56250  0.06231  0.00000  Biso   1.000  Al
  Al261    1.0000 0.50000  0.00000  0.17841  Biso   1.000  Al
  Al262    1.0000 0.50000  0.06231  0.26762  Biso   1.000  Al
  Al263    1.0000 0.56250  0.00000  0.26762  Biso   1.000  Al
  Al264    1.0000 0.56250  0.06231  0.17841  Biso   1.000  Al
  Al265    1.0000 0.50000  0.12462  0.00000  Biso   1.000  Al
  Al266    1.0000 0.50000  0.18692  0.08921  Biso   1.000  Al
  Al267    1.0000 0.56250  0.12462  0.08921  Biso   1.000  Al
  Al268    1.0000 0.56250  0.18692  0.00000  Biso   1.000  Al
  Al269    1.0000 0.50000  0.12462  0.17841  Biso   1.000  Al
  Al270    1.0000 0.50000  0.18692  0.26762  Biso   1.000  Al
  Al271    1.0000 0.56250  0.12462  0.26762  Biso   1.000  Al
  Al272    1.0000 0.56250  0.18692  0.17841  Biso   1.000  Al
  Al273    1.0000 0.50000  0.24923  0.00000  Biso   1.000  Al
  Al274    1.0000 0.50000  0.31154  0.08921  Biso   1.000  Al
  Al275    1.0000 0.56250  0.24923  0.08921  Biso   1.000  Al
  Al276    1.0000 0.56250  0.31154  0.00000  Biso   1.000  Al
  Al277    1.0000 0.50000  0.24923  0.17841  Biso   1.000  Al
  Al278    1.0000 0.50000  0.31154  0.26762  Biso   1.000  Al
  Al279    1.0000 0.56250  0.24923  0.26762  Biso   1.000  Al
  Al280    1.0000 0.56250  0.31154  0.17841  Biso   1.000  Al
  Al281    1.0000 0.50000  0.37385  0.00000  Biso   1.000  Al
  Al282    1.0000 0.50000  0.43615  0.08921  Biso   1.000  Al
  Al283    1.0000 0.56250  0.37385  0.08921  Biso   1.000  Al
  Al284    1.0000 0.56250  0.43615  0.00000  Biso   1.000  Al
  Al285    1.0000 0.50000  0.37385  0.17841  Biso   1.000  Al
  Al286    1.0000 0.50000  0.43615  0.26762  Biso   1.000  Al
  Al287    1.0000 0.56250  0.37385  0.26762  Biso   1.000  Al
  Al288    1.0000 0.56250  0.43615  0.17841  Biso   1.000  Al
  Al289    1.0000 0.50000  0.49846  0.00000  Biso   1.000  Al
  Al290    1.0000 0.50000  0.56077  0.08921  Biso   1.000  Al
  Al291    1.0000 0.56250  0.49846  0.08921  Biso   1.000  Al
  Al292    1.0000 0.56250  0.56077  0.00000  Biso   1.000  Al
  Al293    1.0000 0.50000  0.49846  0.17841  Biso   1.000  Al
  Al294    1.0000 0.50000  0.56077  0.26762  Biso   1.000  Al
  Al295    1.0000 0.56250  0.49846  0.26762  Biso   1.000  Al
  Al296    1.0000 0.56250  0.56077  0.17841  Biso   1.000  Al
  Al297    1.0000 0.50000  0.62308  0.00000  Biso   1.000  Al
  Al298    1.0000 0.50000  0.68538  0.08921  Biso   1.000  Al
  Al299    1.0000 0.56250  0.62308  0.08921  Biso   1.000  Al
  Al300    1.0000 0.56250  0.68538  0.00000  Biso   1.000  Al
  Al301    1.0000 0.50000  0.62308  0.17841  Biso   1.000  Al
  Al302    1.0000 0.50000  0.68538  0.26762  Biso   1.000  Al
  Al303    1.0000 0.56250  0.62308  0.26762  Biso   1.000  Al
  Al304    1.0000 0.56250  0.68538  0.17841  Biso   1.000  Al
  Al305    1.0000 0.50000  0.74769  0.00000  Biso   1.000  Al
  Al306    1.0000 0.50000  0.81000  0.08921  Biso   1.000  Al
  Al307    1.0000 0.56250  0.74769  0.08921  Biso   1.000  Al
  Al308    1.0000 0.56250  0.81000  0.00000  Biso   1.000  Al
  Al309    1.0000 0.50000  0.74769  0.17841  Biso   1.000  Al
  Al310    1.0000 0.50000  0.81000  0.26762  Biso   1.000  Al
  Al311    1.0000 0.56250  0.74769  0.26762  Biso   1.000  Al
  Al312    1.0000 0.56250  0.81000  0.17841  Biso   1.000  Al
  Al313    1.0000 0.50000  0.87231  0.00000  Biso   1.000  Al
  Al314    1.0000 0.50000  0.93462  0.08921  Biso   1.000  Al
  Al315    1.0000 0.56250  0.87231  0.08921  Biso   1.000  Al
  Al316    1.0000 0.56250  0.93462  0.00000  Biso   1.000  Al
  Al317    1.0000 0.50000  0.87231  0.17841  Biso   1.000  Al
  Al318    1.0000 0.50000  0.93462  0.26762  Biso   1.000  Al
  Al319    1.0000 0.56250  0.87231  0.26762  Biso   1.000  Al
  Al320    1.0000 0.56250  0.93462  0.17841  Biso   1.000  Al
  Al321    1.0000 0.62500  0.00000  0.00000  Biso   1.000  Al
  Al322    1.0000 0.62500  0.06231  0.08921  Biso   1.000  Al
  Al323    1.0000 0.68750  0.00000  0.08921  Biso   1.000  Al
  Al324    1.0000 0.68750  0.06231  0.00000  Biso   1.000  Al
  Al325    1.0000 0.62500  0.00000  0.17841  Biso   1.000  Al
  Al326    1.0000 0.62500  0.06231  0.26762  Biso   1.000  Al
  Al327    1.0000 0.68750  0.00000  0.26762  Biso   1.000  Al
  Al328    1.0000 0.68750  0.06231  0.17841  Biso   1.000  Al
  Al329    1.0000 0.62500  0.12462  0.00000  Biso   1.000  Al
  Al330    1.0000 0.62500  0.18692  0.08921  Biso   1.000  Al
  Al331    1.0000 0.68750  0.12462  0.08921  Biso   1.000  Al
  Al332    1.0000 0.68750  0.18692  0.00000  Biso   1.000  Al
  Al333    1.0000 0.62500  0.12462  0.17841  Biso   1.000  Al
  Al334    1.0000 0.62500  0.18692  0.26762  Biso   1.000  Al
  Al335    1.0000 0.68750  0.12462  0.26762  Biso   1.000  Al
  Al336    1.0000 0.68750  0.18692  0.17841  Biso   1.000  Al
  Al337    1.0000 0.62500  0.24923  0.00000  Biso   1.000  Al
  Al338    1.0000 0.62500  0.31154  0.08921  Biso   1.000  Al
  Al339    1.0000 0.68750  0.24923  0.08921  Biso   1.000  Al
  Al340    1.0000 0.68750  0.31154  0.00000  Biso   1.000  Al
  Al341    1.0000 0.62500  0.24923  0.17841  Biso   1.000  Al
  Al342    1.0000 0.62500  0.31154  0.26762  Biso   1.000  Al
  Al343    1.0000 0.68750  0.24923  0.26762  Biso   1.000  Al
  Al344    1.0000 0.68750  0.31154  0.17841  Biso   1.000  Al
  Al345    1.0000 0.62500  0.37385  0.00000  Biso   1.000  Al
  Al346    1.0000 0.62500  0.43615  0.08921  Biso   1.000  Al
  Al347    1.0000 0.68750  0.37385  0.08921  Biso   1.000  Al
  Al348    1.0000 0.68750  0.43615  0.00000  Biso   1.000  Al
  Al349    1.0000 0.62500  0.37385  0.17841  Biso   1.000  Al
  Al350    1.0000 0.62500  0.43615  0.26762  Biso   1.000  Al
  Al351    1.0000 0.68750  0.37385  0.26762  Biso   1.000  Al
  Al352    1.0000 0.68750  0.43615  0.17841  Biso   1.000  Al
  Al353    1.0000 0.62500  0.49846  0.00000  Biso   1.000  Al
  Al354    1.0000 0.62500  0.56077  0.08921  Biso   1.000  Al
  Al355    1.0000 0.68750  0.49846  0.08921  Biso   1.000  Al
  Al356    1.0000 0.68750  0.56077  0.00000  Biso   1.000  Al
  Al357    1.0000 0.62500  0.49846  0.17841  Biso   1.000  Al
  Al358    1.0000 0.62500  0.56077  0.26762  Biso   1.000  Al
  Al359    1.0000 0.68750  0.49846  0.26762  Biso   1.000  Al
  Al360    1.0000 0.68750  0.56077  0.17841  Biso   1.000  Al
  Al361    1.0000 0.62500  0.62308  0.00000  Biso   1.000  Al
  Al362    1.0000 0.62500  0.68538  0.08921  Biso   1.000  Al
  Al363    1.0000 0.68750  0.62308  0.08921  Biso   1.000  Al
  Al364    1.0000 0.68750  0.68538  0.00000  Biso   1.000  Al
  Al365    1.0000 0.62500  0.62308  0.17841  Biso   1.000  Al
  Al366    1.0000 0.62500  0.68538  0.26762  Biso   1.000  Al
  Al367    1.0000 0.68750  0.62308  0.26762  Biso   1.000  Al
  Al368    1.0000 0.68750  0.68538  0.17841  Biso   1.000  Al
  Al369    1.0000 0.62500  0.74769  0.00000  Biso   1.000  Al
  Al370    1.0000 0.62500  0.81000  0.08921  Biso   1.000  Al
  Al371    1.0000 0.68750  0.74769  0.08921  Biso   1.000  Al
  Al372    1.0000 0.68750  0.81000  0.00000  Biso   1.000  Al
  Al373    1.0000 0.62500  0.74769  0.17841  Biso   1.000  Al
  Al374    1.0000 0.62500  0.81000  0.26762  Biso   1.000  Al
  Al375    1.0000 0.68750  0.74769  0.26762  Biso   1.000  Al
  Al376    1.0000 0.68750  0.81000  0.17841  Biso   1.000  Al
  Al377    1.0000 0.62500  0.87231  0.00000  Biso   1.000  Al
  Al378    1.0000 0.62500  0.93462  0.08921  Biso   1.000  Al
  Al379    1.0000 0.68750  0.87231  0.08921  Biso   1.000  Al
  Al380    1.0000 0.68750  0.93462  0.00000  Biso   1.000  Al
  Al381    1.0000 0.62500  0.87231  0.17841  Biso   1.000  Al
  Al382    1.0000 0.62500  0.93462  0.26762  Biso   1.000  Al
  Al383    1.0000 0.68750  0.87231  0.26762  Biso   1.000  Al
  Al384    1.0000 0.68750  0.93462  0.17841  Biso   1.000  Al
  Al385    1.0000 0.75000  0.00000  0.00000  Biso   1.000  Al
  Al386    1.0000 0.75000  0.06231  0.08921  Biso   1.000  Al
  Al387    1.0000 0.81250  0.00000  0.08921  Biso   1.000  Al
  Al388    1.0000 0.81250  0.06231  0.00000  Biso   1.000  Al
  Al389    1.0000 0.75000  0.00000  0.17841  Biso   1.000  Al
  Al390    1.0000 0.75000  0.06231  0.26762  Biso   1.000  Al
  Al391    1.0000 0.81250  0.00000  0.26762  Biso   1.000  Al
  Al392    1.0000 0.81250  0.06231  0.17841  Biso   1.000  Al
  Al393    1.0000 0.75000  0.12462  0.00000  Biso   1.000  Al
  Al394    1.0000 0.75000  0.18692  0.08921  Biso   1.000  Al
  Al395    1.0000 0.81250  0.12462  0.08921  Biso   1.000  Al
  Al396    1.0000 0.81250  0.18692  0.00000  Biso   1.000  Al
  Al397    1.0000 0.75000  0.12462  0.17841  Biso   1.000  Al
  Al398    1.0000 0.75000  0.18692  0.26762  Biso   1.000  Al
  Al399    1.0000 0.81250  0.12462  0.26762  Biso   1.000  Al
  Al400    1.0000 0.81250  0.18692  0.17841  Biso   1.000  Al
  Al401    1.0000 0.75000  0.24923  0.00000  Biso   1.000  Al
  Al402    1.0000 0.75000  0.31154  0.08921  Biso   1.000  Al
  Al403    1.0000 0.81250  0.24923  0.08921  Biso   1.000  Al
  Al404    1.0000 0.81250  0.31154  0.00000  Biso   1.000  Al
  Al405    1.0000 0.75000  0.24923  0.17841  Biso   1.000  Al
  Al406    1.0000 0.75000  0.31154  0.26762  Biso   1.000  Al
  Al407    1.0000 0.81250  0.24923  0.26762  Biso   1.000  Al
  Al408    1.0000 0.81250  0.31154  0.17841  Biso   1.000  Al
  Al409    1.0000 0.75000  0.37385  0.00000  Biso   1.000  Al
  Al410    1.0000 0.75000  0.43615  0.08921  Biso   1.000  Al
  Al411    1.0000 0.81250  0.37385  0.08921  Biso   1.000  Al
  Al412    1.0000 0.81250  0.43615  0.00000  Biso   1.000  Al
  Al413    1.0000 0.75000  0.37385  0.17841  Biso   1.000  Al
  Al414    1.0000 0.75000  0.43615  0.26762  Biso   1.000  Al
  Al415    1.0000 0.81250  0.37385  0.26762  Biso   1.000  Al
  Al416    1.0000 0.81250  0.43615  0.17841  Biso   1.000  Al
  Al417    1.0000 0.75000  0.49846  0.00000  Biso   1.000  Al
  Al418    1.0000 0.75000  0.56077  0.08921  Biso   1.000  Al
  Al419    1.0000 0.81250  0.49846  0.08921  Biso   1.000  Al
  Al420    1.0000 0.81250  0.56077  0.00000  Biso   1.000  Al
  Al421    1.0000 0.75000  0.49846  0.17841  Biso   1.000  Al
  Al422    1.0000 0.75000  0.56077  0.26762  Biso   1.000  Al
  Al423    1.0000 0.81250  0.49846  0.26762  Biso   1.000  Al
  Al424    1.0000 0.81250  0.56077  0.17841  Biso   1.000  Al
  Al425    1.0000 0.75000  0.62308  0.00000  Biso   1.000  Al
  Al426    1.0000 0.75000  0.68538  0.08921  Biso   1.000  Al
  Al427    1.0000 0.81250  0.62308  0.08921  Biso   1.000  Al
  Al428    1.0000 0.81250  0.68538  0.00000  Biso   1.000  Al
  Al429    1.0000 0.75000  0.62308  0.17841  Biso   1.000  Al
  Al430    1.0000 0.75000  0.68538  0.26762  Biso   1.000  Al
  Al431    1.0000 0.81250  0.62308  0.26762  Biso   1.000  Al
  Al432    1.0000 0.81250  0.68538  0.17841  Biso   1.000  Al
  Al433    1.0000 0.75000  0.74769  0.00000  Biso   1.000  Al
  Al434    1.0000 0.75000  0.81000  0.08921  Biso   1.000  Al
  Al435    1.0000 0.81250  0.74769  0.08921  Biso   1.000  Al
  Al436    1.0000 0.81250  0.81000  0.00000  Biso   1.000  Al
  Al437    1.0000 0.75000  0.74769  0.17841  Biso   1.000  Al
  Al438    1.0000 0.75000  0.81000  0.26762  Biso   1.000  Al
  Al439    1.0000 0.81250  0.74769  0.26762  Biso   1.000  Al
  Al440    1.0000 0.81250  0.81000  0.17841  Biso   1.000  Al
  Al441    1.0000 0.75000  0.87231  0.00000  Biso   1.000  Al
  Al442    1.0000 0.75000  0.93462  0.08921  Biso   1.000  Al
  Al443    1.0000 0.81250  0.87231  0.08921  Biso   1.000  Al
  Al444    1.0000 0.81250  0.93462  0.00000  Biso   1.000  Al
  Al445    1.0000 0.75000  0.87231  0.17841  Biso   1.000  Al
  Al446    1.0000 0.75000  0.93462  0.26762  Biso   1.000  Al
  Al447    1.0000 0.81250  0.87231  0.26762  Biso   1.000  Al
  Al448    1.0000 0.81250  0.93462  0.17841  Biso   1.000  Al
  Al449    1.0000 0.87500  0.00000  0.00000  Biso   1.000  Al
  Al450    1.0000 0.87500  0.06231  0.08921  Biso   1.000  Al
  Al451    1.0000 0.93750  0.00000  0.08921  Biso   1.000  Al
  Al452    1.0000 0.93750  0.06231  0.00000  Biso   1.000  Al
  Al453    1.0000 0.87500  0.00000  0.17841  Biso   1.000  Al
  Al454    1.0000 0.87500  0.06231  0.26762  Biso   1.000  Al
  Al455    1.0000 0.93750  0.00000  0.26762  Biso   1.000  Al
  Al456    1.0000 0.93750  0.06231  0.17841  Biso   1.000  Al
  Al457    1.0000 0.87500  0.12462  0.00000  Biso   1.000  Al
  Al458    1.0000 0.87500  0.18692  0.08921  Biso   1.000  Al
  Al459    1.0000 0.93750  0.12462  0.08921  Biso   1.000  Al
  Al460    1.0000 0.93750  0.18692  0.00000  Biso   1.000  Al
  Al461    1.0000 0.87500  0.12462  0.17841  Biso   1.000  Al
  Al462    1.0000 0.87500  0.18692  0.26762  Biso   1.000  Al
  Al463    1.0000 0.93750  0.12462  0.26762  Biso   1.000  Al
  Al464    1.0000 0.93750  0.18692  0.17841  Biso   1.000  Al
  Al465    1.0000 0.87500  0.24923  0.00000  Biso   1.000  Al
  Al466    1.0000 0.87500  0.31154  0.08921  Biso   1.000  Al
  Al467    1.0000 0.93750  0.24923  0.08921  Biso   1.000  Al
  Al468    1.0000 0.93750  0.31154  0.00000  Biso   1.000  Al
  Al469    1.0000 0.87500  0.24923  0.17841  Biso   1.000  Al
  Al470    1.0000 0.87500  0.31154  0.26762  Biso   1.000  Al
  Al471    1.0000 0.93750  0.24923  0.26762  Biso   1.000  Al
  Al472    1.0000 0.93750  0.31154  0.17841  Biso   1.000  Al
  Al473    1.0000 0.87500  0.37385  0.00000  Biso   1.000  Al
  Al474    1.0000 0.87500  0.43615  0.08921  Biso   1.000  Al
  Al475    1.0000 0.93750  0.37385  0.08921  Biso   1.000  Al
  Al476    1.0000 0.93750  0.43615  0.00000  Biso   1.000  Al
  Al477    1.0000 0.87500  0.37385  0.17841  Biso   1.000  Al
  Al478    1.0000 0.87500  0.43615  0.26762  Biso   1.000  Al
  Al479    1.0000 0.93750  0.37385  0.26762  Biso   1.000  Al
  Al480    1.0000 0.93750  0.43615  0.17841  Biso   1.000  Al
  Al481    1.0000 0.87500  0.49846  0.00000  Biso   1.000  Al
  Al482    1.0000 0.87500  0.56077  0.08921  Biso   1.000  Al
  Al483    1.0000 0.93750  0.49846  0.08921  Biso   1.000  Al
  Al484    1.0000 0.93750  0.56077  0.00000  Biso   1.000  Al
  Al485    1.0000 0.87500  0.49846  0.17841  Biso   1.000  Al
  Al486    1.0000 0.87500  0.56077  0.26762  Biso   1.000  Al
  Al487    1.0000 0.93750  0.49846  0.26762  Biso   1.000  Al
  Al488    1.0000 0.93750  0.56077  0.17841  Biso   1.000  Al
  Al489    1.0000 0.87500  0.62308  0.00000  Biso   1.000  Al
  Al490    1.0000 0.87500  0.68538  0.08921  Biso   1.000  Al
  Al491    1.0000 0.93750  0.62308  0.08921  Biso   1.000  Al
  Al492    1.0000 0.93750  0.68538  0.00000  Biso   1.000  Al
  Al493    1.0000 0.87500  0.62308  0.17841  Biso   1.000  Al
  Al494    1.0000 0.87500  0.68538  0.26762  Biso   1.000  Al
  Al495    1.0000 0.93750  0.62308  0.26762  Biso   1.000  Al
  Al496    1.0000 0.93750  0.68538  0.17841  Biso   1.000  Al
  Al497    1.0000 0.87500  0.74769  0.00000  Biso   1.000  Al
  Al498    1.0000 0.87500  0.81000  0.08921  Biso   1.000  Al
  Al499    1.0000 0.93750  0.74769  0.08921  Biso   1.000  Al
  Al500    1.0000 0.93750  0.81000  0.00000  Biso   1.000  Al
  Al501    1.0000 0.87500  0.74769  0.17841  Biso   1.000  Al
  Al502    1.0000 0.87500  0.81000  0.26762  Biso   1.000  Al
  Al503    1.0000 0.93750  0.74769  0.26762  Biso   1.000  Al
  Al504    1.0000 0.93750  0.81000  0.17841  Biso   1.000  Al
  Al505    1.0000 0.87500  0.87231  0.00000  Biso   1.000  Al
  Al506    1.0000 0.87500  0.93462  0.08921  Biso   1.000  Al
  Al507    1.0000 0.93750  0.87231  0.08921  Biso   1.000  Al
  Al508    1.0000 0.93750  0.93462  0.00000  Biso   1.000  Al
  Al509    1.0000 0.87500  0.87231  0.17841  Biso   1.000  Al
  Al510    1.0000 0.87500  0.93462  0.26762  Biso   1.000  Al
  Al511    1.0000 0.93750  0.87231  0.26762  Biso   1.000  Al
  Al512    1.0000 0.93750  0.93462  0.17841  Biso   1.000  Al
  H1       1.0000 0.02114  0.07948  0.47383  Biso   1.000  H
  C1       1.0000 0.04360  0.09827  0.47383  Biso   1.000  C
  C2       1.0000 0.08566  0.07630  0.47383  Biso   1.000  C
  F1       1.0000 0.03941  0.12264  0.52291  Biso   1.000  F
  F2       1.0000 0.03941  0.12264  0.42476  Biso   1.000  F
  F3       1.0000 0.08983  0.05191  0.42476  Biso   1.000  F
  F4       1.0000 0.08983  0.05191  0.52291  Biso   1.000  F
  C3       1.0000 0.12277  0.10593  0.47383  Biso   1.000  C
  C4       1.0000 0.16431  0.08301  0.47383  Biso   1.000  C
  F5       1.0000 0.11913  0.13041  0.52291  Biso   1.000  F
  F6       1.0000 0.11913  0.13041  0.42476  Biso   1.000  F
  F7       1.0000 0.16790  0.05854  0.42476  Biso   1.000  F
  F8       1.0000 0.16790  0.05854  0.52291  Biso   1.000  F
  C5       1.0000 0.20206  0.11177  0.47383  Biso   1.000  C
  C6       1.0000 0.24308  0.08793  0.47383  Biso   1.000  C
  F9       1.0000 0.19900  0.13633  0.52291  Biso   1.000  F
  F10      1.0000 0.19900  0.13633  0.42476  Biso   1.000  F
  F11      1.0000 0.24614  0.06338  0.42476  Biso   1.000  F
  F12      1.0000 0.24614  0.06338  0.52291  Biso   1.000  F
  C7       1.0000 0.28150  0.11581  0.47383  Biso   1.000  C
  C8       1.0000 0.32194  0.09103  0.47383  Biso   1.000  C
  F13      1.0000 0.27900  0.14042  0.52291  Biso   1.000  F
  F14      1.0000 0.27900  0.14042  0.42476  Biso   1.000  F
  F15      1.0000 0.32444  0.06642  0.42476  Biso   1.000  F
  F16      1.0000 0.32444  0.06642  0.52291  Biso   1.000  F
  C9       1.0000 0.36100  0.11805  0.47383  Biso   1.000  C
  C10      1.0000 0.40088  0.09236  0.47383  Biso   1.000  C
  F17      1.0000 0.35907  0.14270  0.52291  Biso   1.000  F
  F18      1.0000 0.35907  0.14270  0.42476  Biso   1.000  F
  F19      1.0000 0.40279  0.06769  0.42476  Biso   1.000  F
  F20      1.0000 0.40279  0.06769  0.52291  Biso   1.000  F
  C11      1.0000 0.44052  0.11845  0.47383  Biso   1.000  C
  C12      1.0000 0.47981  0.09183  0.47383  Biso   1.000  C
  F21      1.0000 0.43918  0.14316  0.52291  Biso   1.000  F
  F22      1.0000 0.43918  0.14316  0.42476  Biso   1.000  F
  F23      1.0000 0.48115  0.06716  0.42476  Biso   1.000  F
  F24      1.0000 0.48115  0.06716  0.52291  Biso   1.000  F
  C13      1.0000 0.52005  0.11706  0.47383  Biso   1.000  C
  C14      1.0000 0.55872  0.08956  0.47383  Biso   1.000  C
  F25      1.0000 0.51927  0.14179  0.52291  Biso   1.000  F
  F26      1.0000 0.51927  0.14179  0.42476  Biso   1.000  F
  F27      1.0000 0.55948  0.06485  0.42476  Biso   1.000  F
  F28      1.0000 0.55948  0.06485  0.52291  Biso   1.000  F
  C15      1.0000 0.59952  0.11384  0.47383  Biso   1.000  C
  C16      1.0000 0.63753  0.08548  0.47383  Biso   1.000  C
  F29      1.0000 0.59928  0.13859  0.52291  Biso   1.000  F
  F30      1.0000 0.59928  0.13859  0.42476  Biso   1.000  F
  F31      1.0000 0.63773  0.06074  0.42476  Biso   1.000  F
  F32      1.0000 0.63773  0.06074  0.52291  Biso   1.000  F
  C17      1.0000 0.67888  0.10882  0.47383  Biso   1.000  C
  C18      1.0000 0.71623  0.07957  0.47383  Biso   1.000  C
  F33      1.0000 0.67922  0.13356  0.52291  Biso   1.000  F
  F34      1.0000 0.67922  0.13356  0.42476  Biso   1.000  F
  F35      1.0000 0.71588  0.05486  0.42476  Biso   1.000  F
  F36      1.0000 0.71588  0.05486  0.52291  Biso   1.000  F
  C19      1.0000 0.75814  0.10197  0.47383  Biso   1.000  C
  C20      1.0000 0.79480  0.07191  0.47383  Biso   1.000  C
  F37      1.0000 0.75904  0.12671  0.52291  Biso   1.000  F
  F38      1.0000 0.75904  0.12671  0.42476  Biso   1.000  F
  F39      1.0000 0.79386  0.04718  0.42476  Biso   1.000  F
  F40      1.0000 0.79386  0.04718  0.52291  Biso   1.000  F
  H2       1.0000 0.82096  0.08512  0.47383  Biso   1.000  H
  H3       1.0000 0.02114  0.27948  0.47383  Biso   1.000  H
  C21      1.0000 0.04360  0.29827  0.47383  Biso   1.000  C
  C22      1.0000 0.08566  0.27630  0.47383  Biso   1.000  C
  F41      1.0000 0.03941  0.32264  0.52291  Biso   1.000  F
  F42      1.0000 0.03941  0.32264  0.42476  Biso   1.000  F
  F43      1.0000 0.08983  0.25191  0.42476  Biso   1.000  F
  F44      1.0000 0.08983  0.25191  0.52291  Biso   1.000  F
  C23      1.0000 0.12277  0.30593  0.47383  Biso   1.000  C
  C24      1.0000 0.16431  0.28301  0.47383  Biso   1.000  C
  F45      1.0000 0.11913  0.33041  0.52291  Biso   1.000  F
  F46      1.0000 0.11913  0.33041  0.42476  Biso   1.000  F
  F47      1.0000 0.16790  0.25854  0.42476  Biso   1.000  F
  F48      1.0000 0.16790  0.25854  0.52291  Biso   1.000  F
  C25      1.0000 0.20206  0.31177  0.47383  Biso   1.000  C
  C26      1.0000 0.24308  0.28793  0.47383  Biso   1.000  C
  F49      1.0000 0.19900  0.33633  0.52291  Biso   1.000  F
  F50      1.0000 0.19900  0.33633  0.42476  Biso   1.000  F
  F51      1.0000 0.24614  0.26338  0.42476  Biso   1.000  F
  F52      1.0000 0.24614  0.26338  0.52291  Biso   1.000  F
  C27      1.0000 0.28150  0.31581  0.47383  Biso   1.000  C
  C28      1.0000 0.32194  0.29103  0.47383  Biso   1.000  C
  F53      1.0000 0.27900  0.34042  0.52291  Biso   1.000  F
  F54      1.0000 0.27900  0.34042  0.42476  Biso   1.000  F
  F55      1.0000 0.32444  0.26642  0.42476  Biso   1.000  F
  F56      1.0000 0.32444  0.26642  0.52291  Biso   1.000  F
  C29      1.0000 0.36100  0.31805  0.47383  Biso   1.000  C
  C30      1.0000 0.40088  0.29236  0.47383  Biso   1.000  C
  F57      1.0000 0.35907  0.34270  0.52291  Biso   1.000  F
  F58      1.0000 0.35907  0.34270  0.42476  Biso   1.000  F
  F59      1.0000 0.40279  0.26769  0.42476  Biso   1.000  F
  F60      1.0000 0.40279  0.26769  0.52291  Biso   1.000  F
  C31      1.0000 0.44052  0.31845  0.47383  Biso   1.000  C
  C32      1.0000 0.47981  0.29183  0.47383  Biso   1.000  C
  F61      1.0000 0.43918  0.34316  0.52291  Biso   1.000  F
  F62      1.0000 0.43918  0.34316  0.42476  Biso   1.000  F
  F63      1.0000 0.48115  0.26716  0.42476  Biso   1.000  F
  F64      1.0000 0.48115  0.26716  0.52291  Biso   1.000  F
  C33      1.0000 0.52005  0.31706  0.47383  Biso   1.000  C
  C34      1.0000 0.55872  0.28956  0.47383  Biso   1.000  C
  F65      1.0000 0.51927  0.34179  0.52291  Biso   1.000  F
  F66      1.0000 0.51927  0.34179  0.42476  Biso   1.000  F
  F67      1.0000 0.55948  0.26485  0.42476  Biso   1.000  F
  F68      1.0000 0.55948  0.26485  0.52291  Biso   1.000  F
  C35      1.0000 0.59952  0.31384  0.47383  Biso   1.000  C
  C36      1.0000 0.63753  0.28548  0.47383  Biso   1.000  C
  F69      1.0000 0.59928  0.33859  0.52291  Biso   1.000  F
  F70      1.0000 0.59928  0.33859  0.42476  Biso   1.000  F
  F71      1.0000 0.63773  0.26074  0.42476  Biso   1.000  F
  F72      1.0000 0.63773  0.26074  0.52291  Biso   1.000  F
  C37      1.0000 0.67888  0.30882  0.47383  Biso   1.000  C
  C38      1.0000 0.71623  0.27957  0.47383  Biso   1.000  C
  F73      1.0000 0.67922  0.33356  0.52291  Biso   1.000  F
  F74      1.0000 0.67922  0.33356  0.42476  Biso   1.000  F
  F75      1.0000 0.71588  0.25486  0.42476  Biso   1.000  F
  F76      1.0000 0.71588  0.25486  0.52291  Biso   1.000  F
  C39      1.0000 0.75814  0.30197  0.47383  Biso   1.000  C
  C40      1.0000 0.79480  0.27191  0.47383  Biso   1.000  C
  F77      1.0000 0.75904  0.32671  0.52291  Biso   1.000  F
  F78      1.0000 0.75904  0.32671  0.42476  Biso   1.000  F
  F79      1.0000 0.79386  0.24718  0.42476  Biso   1.000  F
  F80      1.0000 0.79386  0.24718  0.52291  Biso   1.000  F
  H4       1.0000 0.82096  0.28512  0.47383  Biso   1.000  H
  H5       1.0000 0.02114  0.47948  0.47383  Biso   1.000  H
  C41      1.0000 0.04360  0.49827  0.47383  Biso   1.000  C
  C42      1.0000 0.08566  0.47630  0.47383  Biso   1.000  C
  F81      1.0000 0.03941  0.52264  0.52291  Biso   1.000  F
  F82      1.0000 0.03941  0.52264  0.42476  Biso   1.000  F
  F83      1.0000 0.08983  0.45191  0.42476  Biso   1.000  F
  F84      1.0000 0.08983  0.45191  0.52291  Biso   1.000  F
  C43      1.0000 0.12277  0.50593  0.47383  Biso   1.000  C
  C44      1.0000 0.16431  0.48301  0.47383  Biso   1.000  C
  F85      1.0000 0.11913  0.53041  0.52291  Biso   1.000  F
  F86      1.0000 0.11913  0.53041  0.42476  Biso   1.000  F
  F87      1.0000 0.16790  0.45854  0.42476  Biso   1.000  F
  F88      1.0000 0.16790  0.45854  0.52291  Biso   1.000  F
  C45      1.0000 0.20206  0.51177  0.47383  Biso   1.000  C
  C46      1.0000 0.24308  0.48793  0.47383  Biso   1.000  C
  F89      1.0000 0.19900  0.53633  0.52291  Biso   1.000  F
  F90      1.0000 0.19900  0.53633  0.42476  Biso   1.000  F
  F91      1.0000 0.24614  0.46338  0.42476  Biso   1.000  F
  F92      1.0000 0.24614  0.46338  0.52291  Biso   1.000  F
  C47      1.0000 0.28150  0.51581  0.47383  Biso   1.000  C
  C48      1.0000 0.32194  0.49103  0.47383  Biso   1.000  C
  F93      1.0000 0.27900  0.54042  0.52291  Biso   1.000  F
  F94      1.0000 0.27900  0.54042  0.42476  Biso   1.000  F
  F95      1.0000 0.32444  0.46642  0.42476  Biso   1.000  F
  F96      1.0000 0.32444  0.46642  0.52291  Biso   1.000  F
  C49      1.0000 0.36100  0.51805  0.47383  Biso   1.000  C
  C50      1.0000 0.40088  0.49236  0.47383  Biso   1.000  C
  F97      1.0000 0.35907  0.54270  0.52291  Biso   1.000  F
  F98      1.0000 0.35907  0.54270  0.42476  Biso   1.000  F
  F99      1.0000 0.40279  0.46769  0.42476  Biso   1.000  F
  F100     1.0000 0.40279  0.46769  0.52291  Biso   1.000  F
  C51      1.0000 0.44052  0.51845  0.47383  Biso   1.000  C
  C52      1.0000 0.47981  0.49183  0.47383  Biso   1.000  C
  F101     1.0000 0.43918  0.54316  0.52291  Biso   1.000  F
  F102     1.0000 0.43918  0.54316  0.42476  Biso   1.000  F
  F103     1.0000 0.48115  0.46716  0.42476  Biso   1.000  F
  F104     1.0000 0.48115  0.46716  0.52291  Biso   1.000  F
  C53      1.0000 0.52005  0.51706  0.47383  Biso   1.000  C
  C54      1.0000 0.55872  0.48956  0.47383  Biso   1.000  C
  F105     1.0000 0.51927  0.54179  0.52291  Biso   1.000  F
  F106     1.0000 0.51927  0.54179  0.42476  Biso   1.000  F
  F107     1.0000 0.55948  0.46485  0.42476  Biso   1.000  F
  F108     1.0000 0.55948  0.46485  0.52291  Biso   1.000  F
  C55      1.0000 0.59952  0.51384  0.47383  Biso   1.000  C
  C56      1.0000 0.63753  0.48548  0.47383  Biso   1.000  C
  F109     1.0000 0.59928  0.53859  0.52291  Biso   1.000  F
  F110     1.0000 0.59928  0.53859  0.42476  Biso   1.000  F
  F111     1.0000 0.63773  0.46074  0.42476  Biso   1.000  F
  F112     1.0000 0.63773  0.46074  0.52291  Biso   1.000  F
  C57      1.0000 0.67888  0.50882  0.47383  Biso   1.000  C
  C58      1.0000 0.71623  0.47957  0.47383  Biso   1.000  C
  F113     1.0000 0.67922  0.53356  0.52291  Biso   1.000  F
  F114     1.0000 0.67922  0.53356  0.42476  Biso   1.000  F
  F115     1.0000 0.71588  0.45486  0.42476  Biso   1.000  F
  F116     1.0000 0.71588  0.45486  0.52291  Biso   1.000  F
  C59      1.0000 0.75814  0.50197  0.47383  Biso   1.000  C
  C60      1.0000 0.79480  0.47191  0.47383  Biso   1.000  C
  F117     1.0000 0.75904  0.52671  0.52291  Biso   1.000  F
  F118     1.0000 0.75904  0.52671  0.42476  Biso   1.000  F
  F119     1.0000 0.79386  0.44718  0.42476  Biso   1.000  F
  F120     1.0000 0.79386  0.44718  0.52291  Biso   1.000  F
  H6       1.0000 0.82096  0.48512  0.47383  Biso   1.000  H
  H7       1.0000 0.02114  0.67948  0.47383  Biso   1.000  H
  C61      1.0000 0.04360  0.69827  0.47383  Biso   1.000  C
  C62      1.0000 0.08566  0.67630  0.47383  Biso   1.000  C
  F121     1.0000 0.03941  0.72264  0.52291  Biso   1.000  F
  F122     1.0000 0.03941  0.72264  0.42476  Biso   1.000  F
  F123     1.0000 0.08983  0.65191  0.42476  Biso   1.000  F
  F124     1.0000 0.08983  0.65191  0.52291  Biso   1.000  F
  C63      1.0000 0.12277  0.70593  0.47383  Biso   1.000  C
  C64      1.0000 0.16431  0.68301  0.47383  Biso   1.000  C
  F125     1.0000 0.11913  0.73041  0.52291  Biso   1.000  F
  F126     1.0000 0.11913  0.73041  0.42476  Biso   1.000  F
  F127     1.0000 0.16790  0.65854  0.42476  Biso   1.000  F
  F128     1.0000 0.16790  0.65854  0.52291  Biso   1.000  F
  C65      1.0000 0.20206  0.71177  0.47383  Biso   1.000  C
  C66      1.0000 0.24308  0.68793  0.47383  Biso   1.000  C
  F129     1.0000 0.19900  0.73633  0.52291  Biso   1.000  F
  F130     1.0000 0.19900  0.73633  0.42476  Biso   1.000  F
  F131     1.0000 0.24614  0.66338  0.42476  Biso   1.000  F
  F132     1.0000 0.24614  0.66338  0.52291  Biso   1.000  F
  C67      1.0000 0.28150  0.71581  0.47383  Biso   1.000  C
  C68      1.0000 0.32194  0.69103  0.47383  Biso   1.000  C
  F133     1.0000 0.27900  0.74042  0.52291  Biso   1.000  F
  F134     1.0000 0.27900  0.74042  0.42476  Biso   1.000  F
  F135     1.0000 0.32444  0.66642  0.42476  Biso   1.000  F
  F136     1.0000 0.32444  0.66642  0.52291  Biso   1.000  F
  C69      1.0000 0.36100  0.71805  0.47383  Biso   1.000  C
  C70      1.0000 0.40088  0.69236  0.47383  Biso   1.000  C
  F137     1.0000 0.35907  0.74270  0.52291  Biso   1.000  F
  F138     1.0000 0.35907  0.74270  0.42476  Biso   1.000  F
  F139     1.0000 0.40279  0.66769  0.42476  Biso   1.000  F
  F140     1.0000 0.40279  0.66769  0.52291  Biso   1.000  F
  C71      1.0000 0.44052  0.71845  0.47383  Biso   1.000  C
  C72      1.0000 0.47981  0.69183  0.47383  Biso   1.000  C
  F141     1.0000 0.43918  0.74316  0.52291  Biso   1.000  F
  F142     1.0000 0.43918  0.74316  0.42476  Biso   1.000  F
  F143     1.0000 0.48115  0.66716  0.42476  Biso   1.000  F
  F144     1.0000 0.48115  0.66716  0.52291  Biso   1.000  F
  C73      1.0000 0.52005  0.71706  0.47383  Biso   1.000  C
  C74      1.0000 0.55872  0.68956  0.47383  Biso   1.000  C
  F145     1.0000 0.51927  0.74179  0.52291  Biso   1.000  F
  F146     1.0000 0.51927  0.74179  0.42476  Biso   1.000  F
  F147     1.0000 0.55948  0.66485  0.42476  Biso   1.000  F
  F148     1.0000 0.55948  0.66485  0.52291  Biso   1.000  F
  C75      1.0000 0.59952  0.71384  0.47383  Biso   1.000  C
  C76      1.0000 0.63753  0.68548  0.47383  Biso   1.000  C
  F149     1.0000 0.59928  0.73859  0.52291  Biso   1.000  F
  F150     1.0000 0.59928  0.73859  0.42476  Biso   1.000  F
  F151     1.0000 0.63773  0.66074  0.42476  Biso   1.000  F
  F152     1.0000 0.63773  0.66074  0.52291  Biso   1.000  F
  C77      1.0000 0.67888  0.70882  0.47383  Biso   1.000  C
  C78      1.0000 0.71623  0.67957  0.47383  Biso   1.000  C
  F153     1.0000 0.67922  0.73356  0.52291  Biso   1.000  F
  F154     1.0000 0.67922  0.73356  0.42476  Biso   1.000  F
  F155     1.0000 0.71588  0.65486  0.42476  Biso   1.000  F
  F156     1.0000 0.71588  0.65486  0.52291  Biso   1.000  F
  C79      1.0000 0.75814  0.70197  0.47383  Biso   1.000  C
  C80      1.0000 0.79480  0.67191  0.47383  Biso   1.000  C
  F157     1.0000 0.75904  0.72671  0.52291  Biso   1.000  F
  F158     1.0000 0.75904  0.72671  0.42476  Biso   1.000  F
  F159     1.0000 0.79386  0.64718  0.42476  Biso   1.000  F
  F160     1.0000 0.79386  0.64718  0.52291  Biso   1.000  F
  H8       1.0000 0.82096  0.68512  0.47383  Biso   1.000  H
  H9       1.0000 0.02114  0.87948  0.47383  Biso   1.000  H
  C81      1.0000 0.04360  0.89827  0.47383  Biso   1.000  C
  C82      1.0000 0.08566  0.87630  0.47383  Biso   1.000  C
  F161     1.0000 0.03941  0.92264  0.52291  Biso   1.000  F
  F162     1.0000 0.03941  0.92264  0.42476  Biso   1.000  F
  F163     1.0000 0.08983  0.85191  0.42476  Biso   1.000  F
  F164     1.0000 0.08983  0.85191  0.52291  Biso   1.000  F
  C83      1.0000 0.12277  0.90593  0.47383  Biso   1.000  C
  C84      1.0000 0.16431  0.88301  0.47383  Biso   1.000  C
  F165     1.0000 0.11913  0.93041  0.52291  Biso   1.000  F
  F166     1.0000 0.11913  0.93041  0.42476  Biso   1.000  F
  F167     1.0000 0.16790  0.85854  0.42476  Biso   1.000  F
  F168     1.0000 0.16790  0.85854  0.52291  Biso   1.000  F
  C85      1.0000 0.20206  0.91177  0.47383  Biso   1.000  C
  C86      1.0000 0.24308  0.88793  0.47383  Biso   1.000  C
  F169     1.0000 0.19900  0.93633  0.52291  Biso   1.000  F
  F170     1.0000 0.19900  0.93633  0.42476  Biso   1.000  F
  F171     1.0000 0.24614  0.86338  0.42476  Biso   1.000  F
  F172     1.0000 0.24614  0.86338  0.52291  Biso   1.000  F
  C87      1.0000 0.28150  0.91581  0.47383  Biso   1.000  C
  C88      1.0000 0.32194  0.89103  0.47383  Biso   1.000  C
  F173     1.0000 0.27900  0.94042  0.52291  Biso   1.000  F
  F174     1.0000 0.27900  0.94042  0.42476  Biso   1.000  F
  F175     1.0000 0.32444  0.86642  0.42476  Biso   1.000  F
  F176     1.0000 0.32444  0.86642  0.52291  Biso   1.000  F
  C89      1.0000 0.36100  0.91805  0.47383  Biso   1.000  C
  C90      1.0000 0.40088  0.89236  0.47383  Biso   1.000  C
  F177     1.0000 0.35907  0.94270  0.52291  Biso   1.000  F
  F178     1.0000 0.35907  0.94270  0.42476  Biso   1.000  F
  F179     1.0000 0.40279  0.86769  0.42476  Biso   1.000  F
  F180     1.0000 0.40279  0.86769  0.52291  Biso   1.000  F
  C91      1.0000 0.44052  0.91845  0.47383  Biso   1.000  C
  C92      1.0000 0.47981  0.89183  0.47383  Biso   1.000  C
  F181     1.0000 0.43918  0.94316  0.52291  Biso   1.000  F
  F182     1.0000 0.43918  0.94316  0.42476  Biso   1.000  F
  F183     1.0000 0.48115  0.86716  0.42476  Biso   1.000  F
  F184     1.0000 0.48115  0.86716  0.52291  Biso   1.000  F
  C93      1.0000 0.52005  0.91706  0.47383  Biso   1.000  C
  C94      1.0000 0.55872  0.88956  0.47383  Biso   1.000  C
  F185     1.0000 0.51927  0.94179  0.52291  Biso   1.000  F
  F186     1.0000 0.51927  0.94179  0.42476  Biso   1.000  F
  F187     1.0000 0.55948  0.86485  0.42476  Biso   1.000  F
  F188     1.0000 0.55948  0.86485  0.52291  Biso   1.000  F
  C95      1.0000 0.59952  0.91384  0.47383  Biso   1.000  C
  C96      1.0000 0.63753  0.88548  0.47383  Biso   1.000  C
  F189     1.0000 0.59928  0.93859  0.52291  Biso   1.000  F
  F190     1.0000 0.59928  0.93859  0.42476  Biso   1.000  F
  F191     1.0000 0.63773  0.86074  0.42476  Biso   1.000  F
  F192     1.0000 0.63773  0.86074  0.52291  Biso   1.000  F
  C97      1.0000 0.67888  0.90882  0.47383  Biso   1.000  C
  C98      1.0000 0.71623  0.87957  0.47383  Biso   1.000  C
  F193     1.0000 0.67922  0.93356  0.52291  Biso   1.000  F
  F194     1.0000 0.67922  0.93356  0.42476  Biso   1.000  F
  F195     1.0000 0.71588  0.85486  0.42476  Biso   1.000  F
  F196     1.0000 0.71588  0.85486  0.52291  Biso   1.000  F
  C99      1.0000 0.75814  0.90197  0.47383  Biso   1.000  C
  C100     1.0000 0.79480  0.87191  0.47383  Biso   1.000  C
  F197     1.0000 0.75904  0.92671  0.52291  Biso   1.000  F
  F198     1.0000 0.75904  0.92671  0.42476  Biso   1.000  F
  F199     1.0000 0.79386  0.84718  0.42476  Biso   1.000  F
  F200     1.0000 0.79386  0.84718  0.52291  Biso   1.000  F
  H10      1.0000 0.82096  0.88512  0.47383  Biso   1.000  H
  Al513    1.0000 0.00000  0.00000  0.64317  Biso   1.000  Al
  Al514    1.0000 0.00000  0.06231  0.73238  Biso   1.000  Al
  Al515    1.0000 0.06250  0.00000  0.73238  Biso   1.000  Al
  Al516    1.0000 0.06250  0.06231  0.64317  Biso   1.000  Al
  Al517    1.0000 0.00000  0.00000  0.82159  Biso   1.000  Al
  Al518    1.0000 0.00000  0.06231  0.91079  Biso   1.000  Al
  Al519    1.0000 0.06250  0.00000  0.91079  Biso   1.000  Al
  Al520    1.0000 0.06250  0.06231  0.82159  Biso   1.000  Al
  Al521    1.0000 0.00000  0.12462  0.64317  Biso   1.000  Al
  Al522    1.0000 0.00000  0.18692  0.73238  Biso   1.000  Al
  Al523    1.0000 0.06250  0.12462  0.73238  Biso   1.000  Al
  Al524    1.0000 0.06250  0.18692  0.64317  Biso   1.000  Al
  Al525    1.0000 0.00000  0.12462  0.82159  Biso   1.000  Al
  Al526    1.0000 0.00000  0.18692  0.91079  Biso   1.000  Al
  Al527    1.0000 0.06250  0.12462  0.91079  Biso   1.000  Al
  Al528    1.0000 0.06250  0.18692  0.82159  Biso   1.000  Al
  Al529    1.0000 0.00000  0.24923  0.64317  Biso   1.000  Al
  Al530    1.0000 0.00000  0.31154  0.73238  Biso   1.000  Al
  Al531    1.0000 0.06250  0.24923  0.73238  Biso   1.000  Al
  Al532    1.0000 0.06250  0.31154  0.64317  Biso   1.000  Al
  Al533    1.0000 0.00000  0.24923  0.82159  Biso   1.000  Al
  Al534    1.0000 0.00000  0.31154  0.91079  Biso   1.000  Al
  Al535    1.0000 0.06250  0.24923  0.91079  Biso   1.000  Al
  Al536    1.0000 0.06250  0.31154  0.82159  Biso   1.000  Al
  Al537    1.0000 0.00000  0.37385  0.64317  Biso   1.000  Al
  Al538    1.0000 0.00000  0.43615  0.73238  Biso   1.000  Al
  Al539    1.0000 0.06250  0.37385  0.73238  Biso   1.000  Al
  Al540    1.0000 0.06250  0.43615  0.64317  Biso   1.000  Al
  Al541    1.0000 0.00000  0.37385  0.82159  Biso   1.000  Al
  Al542    1.0000 0.00000  0.43615  0.91079  Biso   1.000  Al
  Al543    1.0000 0.06250  0.37385  0.91079  Biso   1.000  Al
  Al544    1.0000 0.06250  0.43615  0.82159  Biso   1.000  Al
  Al545    1.0000 0.00000  0.49846  0.64317  Biso   1.000  Al
  Al546    1.0000 0.00000  0.56077  0.73238  Biso   1.000  Al
  Al547    1.0000 0.06250  0.49846  0.73238  Biso   1.000  Al
  Al548    1.0000 0.06250  0.56077  0.64317  Biso   1.000  Al
  Al549    1.0000 0.00000  0.49846  0.82159  Biso   1.000  Al
  Al550    1.0000 0.00000  0.56077  0.91079  Biso   1.000  Al
  Al551    1.0000 0.06250  0.49846  0.91079  Biso   1.000  Al
  Al552    1.0000 0.06250  0.56077  0.82159  Biso   1.000  Al
  Al553    1.0000 0.00000  0.62308  0.64317  Biso   1.000  Al
  Al554    1.0000 0.00000  0.68538  0.73238  Biso   1.000  Al
  Al555    1.0000 0.06250  0.62308  0.73238  Biso   1.000  Al
  Al556    1.0000 0.06250  0.68538  0.64317  Biso   1.000  Al
  Al557    1.0000 0.00000  0.62308  0.82159  Biso   1.000  Al
  Al558    1.0000 0.00000  0.68538  0.91079  Biso   1.000  Al
  Al559    1.0000 0.06250  0.62308  0.91079  Biso   1.000  Al
  Al560    1.0000 0.06250  0.68538  0.82159  Biso   1.000  Al
  Al561    1.0000 0.00000  0.74769  0.64317  Biso   1.000  Al
  Al562    1.0000 0.00000  0.81000  0.73238  Biso   1.000  Al
  Al563    1.0000 0.06250  0.74769  0.73238  Biso   1.000  Al
  Al564    1.0000 0.06250  0.81000  0.64317  Biso   1.000  Al
  Al565    1.0000 0.00000  0.74769  0.82159  Biso   1.000  Al
  Al566    1.0000 0.00000  0.81000  0.91079  Biso   1.000  Al
  Al567    1.0000 0.06250  0.74769  0.91079  Biso   1.000  Al
  Al568    1.0000 0.06250  0.81000  0.82159  Biso   1.000  Al
  Al569    1.0000 0.00000  0.87231  0.64317  Biso   1.000  Al
  Al570    1.0000 0.00000  0.93462  0.73238  Biso   1.000  Al
  Al571    1.0000 0.06250  0.87231  0.73238  Biso   1.000  Al
  Al572    1.0000 0.06250  0.93462  0.64317  Biso   1.000  Al
  Al573    1.0000 0.00000  0.87231  0.82159  Biso   1.000  Al
  Al574    1.0000 0.00000  0.93462  0.91079  Biso   1.000  Al
  Al575    1.0000 0.06250  0.87231  0.91079  Biso   1.000  Al
  Al576    1.0000 0.06250  0.93462  0.82159  Biso   1.000  Al
  Al577    1.0000 0.12500  0.00000  0.64317  Biso   1.000  Al
  Al578    1.0000 0.12500  0.06231  0.73238  Biso   1.000  Al
  Al579    1.0000 0.18750  0.00000  0.73238  Biso   1.000  Al
  Al580    1.0000 0.18750  0.06231  0.64317  Biso   1.000  Al
  Al581    1.0000 0.12500  0.00000  0.82159  Biso   1.000  Al
  Al582    1.0000 0.12500  0.06231  0.91079  Biso   1.000  Al
  Al583    1.0000 0.18750  0.00000  0.91079  Biso   1.000  Al
  Al584    1.0000 0.18750  0.06231  0.82159  Biso   1.000  Al
  Al585    1.0000 0.12500  0.12462  0.64317  Biso   1.000  Al
  Al586    1.0000 0.12500  0.18692  0.73238  Biso   1.000  Al
  Al587    1.0000 0.18750  0.12462  0.73238  Biso   1.000  Al
  Al588    1.0000 0.18750  0.18692  0.64317  Biso   1.000  Al
  Al589    1.0000 0.12500  0.12462  0.82159  Biso   1.000  Al
  Al590    1.0000 0.12500  0.18692  0.91079  Biso   1.000  Al
  Al591    1.0000 0.18750  0.12462  0.91079  Biso   1.000  Al
  Al592    1.0000 0.18750  0.18692  0.82159  Biso   1.000  Al
  Al593    1.0000 0.12500  0.24923  0.64317  Biso   1.000  Al
  Al594    1.0000 0.12500  0.31154  0.73238  Biso   1.000  Al
  Al595    1.0000 0.18750  0.24923  0.73238  Biso   1.000  Al
  Al596    1.0000 0.18750  0.31154  0.64317  Biso   1.000  Al
  Al597    1.0000 0.12500  0.24923  0.82159  Biso   1.000  Al
  Al598    1.0000 0.12500  0.31154  0.91079  Biso   1.000  Al
  Al599    1.0000 0.18750  0.24923  0.91079  Biso   1.000  Al
  Al600    1.0000 0.18750  0.31154  0.82159  Biso   1.000  Al
  Al601    1.0000 0.12500  0.37385  0.64317  Biso   1.000  Al
  Al602    1.0000 0.12500  0.43615  0.73238  Biso   1.000  Al
  Al603    1.0000 0.18750  0.37385  0.73238  Biso   1.000  Al
  Al604    1.0000 0.18750  0.43615  0.64317  Biso   1.000  Al
  Al605    1.0000 0.12500  0.37385  0.82159  Biso   1.000  Al
  Al606    1.0000 0.12500  0.43615  0.91079  Biso   1.000  Al
  Al607    1.0000 0.18750  0.37385  0.91079  Biso   1.000  Al
  Al608    1.0000 0.18750  0.43615  0.82159  Biso   1.000  Al
  Al609    1.0000 0.12500  0.49846  0.64317  Biso   1.000  Al
  Al610    1.0000 0.12500  0.56077  0.73238  Biso   1.000  Al
  Al611    1.0000 0.18750  0.49846  0.73238  Biso   1.000  Al
  Al612    1.0000 0.18750  0.56077  0.64317  Biso   1.000  Al
  Al613    1.0000 0.12500  0.49846  0.82159  Biso   1.000  Al
  Al614    1.0000 0.12500  0.56077  0.91079  Biso   1.000  Al
  Al615    1.0000 0.18750  0.49846  0.91079  Biso   1.000  Al
  Al616    1.0000 0.18750  0.56077  0.82159  Biso   1.000  Al
  Al617    1.0000 0.12500  0.62308  0.64317  Biso   1.000  Al
  Al618    1.0000 0.12500  0.68538  0.73238  Biso   1.000  Al
  Al619    1.0000 0.18750  0.62308  0.73238  Biso   1.000  Al
  Al620    1.0000 0.18750  0.68538  0.64317  Biso   1.000  Al
  Al621    1.0000 0.12500  0.62308  0.82159  Biso   1.000  Al
  Al622    1.0000 0.12500  0.68538  0.91079  Biso   1.000  Al
  Al623    1.0000 0.18750  0.62308  0.91079  Biso   1.000  Al
  Al624    1.0000 0.18750  0.68538  0.82159  Biso   1.000  Al
  Al625    1.0000 0.12500  0.74769  0.64317  Biso   1.000  Al
  Al626    1.0000 0.12500  0.81000  0.73238  Biso   1.000  Al
  Al627    1.0000 0.18750  0.74769  0.73238  Biso   1.000  Al
  Al628    1.0000 0.18750  0.81000  0.64317  Biso   1.000  Al
  Al629    1.0000 0.12500  0.74769  0.82159  Biso   1.000  Al
  Al630    1.0000 0.12500  0.81000  0.91079  Biso   1.000  Al
  Al631    1.0000 0.18750  0.74769  0.91079  Biso   1.000  Al
  Al632    1.0000 0.18750  0.81000  0.82159  Biso   1.000  Al
  Al633    1.0000 0.12500  0.87231  0.64317  Biso   1.000  Al
  Al634    1.0000 0.12500  0.93462  0.73238  Biso   1.000  Al
  Al635    1.0000 0.18750  0.87231  0.73238  Biso   1.000  Al
  Al636    1.0000 0.18750  0.93462  0.64317  Biso   1.000  Al
  Al637    1.0000 0.12500  0.87231  0.82159  Biso   1.000  Al
  Al638    1.0000 0.12500  0.93462  0.91079  Biso   1.000  Al
  Al639    1.0000 0.18750  0.87231  0.91079  Biso   1.000  Al
  Al640    1.0000 0.18750  0.93462  0.82159  Biso   1.000  Al
  Al641    1.0000 0.25000  0.00000  0.64317  Biso   1.000  Al
  Al642    1.0000 0.25000  0.06231  0.73238  Biso   1.000  Al
  Al643    1.0000 0.31250  0.00000  0.73238  Biso   1.000  Al
  Al644    1.0000 0.31250  0.06231  0.64317  Biso   1.000  Al
  Al645    1.0000 0.25000  0.00000  0.82159  Biso   1.000  Al
  Al646    1.0000 0.25000  0.06231  0.91079  Biso   1.000  Al
  Al647    1.0000 0.31250  0.00000  0.91079  Biso   1.000  Al
  Al648    1.0000 0.31250  0.06231  0.82159  Biso   1.000  Al
  Al649    1.0000 0.25000  0.12462  0.64317  Biso   1.000  Al
  Al650    1.0000 0.25000  0.18692  0.73238  Biso   1.000  Al
  Al651    1.0000 0.31250  0.12462  0.73238  Biso   1.000  Al
  Al652    1.0000 0.31250  0.18692  0.64317  Biso   1.000  Al
  Al653    1.0000 0.25000  0.12462  0.82159  Biso   1.000  Al
  Al654    1.0000 0.25000  0.18692  0.91079  Biso   1.000  Al
  Al655    1.0000 0.31250  0.12462  0.91079  Biso   1.000  Al
  Al656    1.0000 0.31250  0.18692  0.82159  Biso   1.000  Al
  Al657    1.0000 0.25000  0.24923  0.64317  Biso   1.000  Al
  Al658    1.0000 0.25000  0.31154  0.73238  Biso   1.000  Al
  Al659    1.0000 0.31250  0.24923  0.73238  Biso   1.000  Al
  Al660    1.0000 0.31250  0.31154  0.64317  Biso   1.000  Al
  Al661    1.0000 0.25000  0.24923  0.82159  Biso   1.000  Al
  Al662    1.0000 0.25000  0.31154  0.91079  Biso   1.000  Al
  Al663    1.0000 0.31250  0.24923  0.91079  Biso   1.000  Al
  Al664    1.0000 0.31250  0.31154  0.82159  Biso   1.000  Al
  Al665    1.0000 0.25000  0.37385  0.64317  Biso   1.000  Al
  Al666    1.0000 0.25000  0.43615  0.73238  Biso   1.000  Al
  Al667    1.0000 0.31250  0.37385  0.73238  Biso   1.000  Al
  Al668    1.0000 0.31250  0.43615  0.64317  Biso   1.000  Al
  Al669    1.0000 0.25000  0.37385  0.82159  Biso   1.000  Al
  Al670    1.0000 0.25000  0.43615  0.91079  Biso   1.000  Al
  Al671    1.0000 0.31250  0.37385  0.91079  Biso   1.000  Al
  Al672    1.0000 0.31250  0.43615  0.82159  Biso   1.000  Al
  Al673    1.0000 0.25000  0.49846  0.64317  Biso   1.000  Al
  Al674    1.0000 0.25000  0.56077  0.73238  Biso   1.000  Al
  Al675    1.0000 0.31250  0.49846  0.73238  Biso   1.000  Al
  Al676    1.0000 0.31250  0.56077  0.64317  Biso   1.000  Al
  Al677    1.0000 0.25000  0.49846  0.82159  Biso   1.000  Al
  Al678    1.0000 0.25000  0.56077  0.91079  Biso   1.000  Al
  Al679    1.0000 0.31250  0.49846  0.91079  Biso   1.000  Al
  Al680    1.0000 0.31250  0.56077  0.82159  Biso   1.000  Al
  Al681    1.0000 0.25000  0.62308  0.64317  Biso   1.000  Al
  Al682    1.0000 0.25000  0.68538  0.73238  Biso   1.000  Al
  Al683    1.0000 0.31250  0.62308  0.73238  Biso   1.000  Al
  Al684    1.0000 0.31250  0.68538  0.64317  Biso   1.000  Al
  Al685    1.0000 0.25000  0.62308  0.82159  Biso   1.000  Al
  Al686    1.0000 0.25000  0.68538  0.91079  Biso   1.000  Al
  Al687    1.0000 0.31250  0.62308  0.91079  Biso   1.000  Al
  Al688    1.0000 0.31250  0.68538  0.82159  Biso   1.000  Al
  Al689    1.0000 0.25000  0.74769  0.64317  Biso   1.000  Al
  Al690    1.0000 0.25000  0.81000  0.73238  Biso   1.000  Al
  Al691    1.0000 0.31250  0.74769  0.73238  Biso   1.000  Al
  Al692    1.0000 0.31250  0.81000  0.64317  Biso   1.000  Al
  Al693    1.0000 0.25000  0.74769  0.82159  Biso   1.000  Al
  Al694    1.0000 0.25000  0.81000  0.91079  Biso   1.000  Al
  Al695    1.0000 0.31250  0.74769  0.91079  Biso   1.000  Al
  Al696    1.0000 0.31250  0.81000  0.82159  Biso   1.000  Al
  Al697    1.0000 0.25000  0.87231  0.64317  Biso   1.000  Al
  Al698    1.0000 0.25000  0.93462  0.73238  Biso   1.000  Al
  Al699    1.0000 0.31250  0.87231  0.73238  Biso   1.000  Al
  Al700    1.0000 0.31250  0.93462  0.64317  Biso   1.000  Al
  Al701    1.0000 0.25000  0.87231  0.82159  Biso   1.000  Al
  Al702    1.0000 0.25000  0.93462  0.91079  Biso   1.000  Al
  Al703    1.0000 0.31250  0.87231  0.91079  Biso   1.000  Al
  Al704    1.0000 0.31250  0.93462  0.82159  Biso   1.000  Al
  Al705    1.0000 0.37500  0.00000  0.64317  Biso   1.000  Al
  Al706    1.0000 0.37500  0.06231  0.73238  Biso   1.000  Al
  Al707    1.0000 0.43750  0.00000  0.73238  Biso   1.000  Al
  Al708    1.0000 0.43750  0.06231  0.64317  Biso   1.000  Al
  Al709    1.0000 0.37500  0.00000  0.82159  Biso   1.000  Al
  Al710    1.0000 0.37500  0.06231  0.91079  Biso   1.000  Al
  Al711    1.0000 0.43750  0.00000  0.91079  Biso   1.000  Al
  Al712    1.0000 0.43750  0.06231  0.82159  Biso   1.000  Al
  Al713    1.0000 0.37500  0.12462  0.64317  Biso   1.000  Al
  Al714    1.0000 0.37500  0.18692  0.73238  Biso   1.000  Al
  Al715    1.0000 0.43750  0.12462  0.73238  Biso   1.000  Al
  Al716    1.0000 0.43750  0.18692  0.64317  Biso   1.000  Al
  Al717    1.0000 0.37500  0.12462  0.82159  Biso   1.000  Al
  Al718    1.0000 0.37500  0.18692  0.91079  Biso   1.000  Al
  Al719    1.0000 0.43750  0.12462  0.91079  Biso   1.000  Al
  Al720    1.0000 0.43750  0.18692  0.82159  Biso   1.000  Al
  Al721    1.0000 0.37500  0.24923  0.64317  Biso   1.000  Al
  Al722    1.0000 0.37500  0.31154  0.73238  Biso   1.000  Al
  Al723    1.0000 0.43750  0.24923  0.73238  Biso   1.000  Al
  Al724    1.0000 0.43750  0.31154  0.64317  Biso   1.000  Al
  Al725    1.0000 0.37500  0.24923  0.82159  Biso   1.000  Al
  Al726    1.0000 0.37500  0.31154  0.91079  Biso   1.000  Al
  Al727    1.0000 0.43750  0.24923  0.91079  Biso   1.000  Al
  Al728    1.0000 0.43750  0.31154  0.82159  Biso   1.000  Al
  Al729    1.0000 0.37500  0.37385  0.64317  Biso   1.000  Al
  Al730    1.0000 0.37500  0.43615  0.73238  Biso   1.000  Al
  Al731    1.0000 0.43750  0.37385  0.73238  Biso   1.000  Al
  Al732    1.0000 0.43750  0.43615  0.64317  Biso   1.000  Al
  Al733    1.0000 0.37500  0.37385  0.82159  Biso   1.000  Al
  Al734    1.0000 0.37500  0.43615  0.91079  Biso   1.000  Al
  Al735    1.0000 0.43750  0.37385  0.91079  Biso   1.000  Al
  Al736    1.0000 0.43750  0.43615  0.82159  Biso   1.000  Al
  Al737    1.0000 0.37500  0.49846  0.64317  Biso   1.000  Al
  Al738    1.0000 0.37500  0.56077  0.73238  Biso   1.000  Al
  Al739    1.0000 0.43750  0.49846  0.73238  Biso   1.000  Al
  Al740    1.0000 0.43750  0.56077  0.64317  Biso   1.000  Al
  Al741    1.0000 0.37500  0.49846  0.82159  Biso   1.000  Al
  Al742    1.0000 0.37500  0.56077  0.91079  Biso   1.000  Al
  Al743    1.0000 0.43750  0.49846  0.91079  Biso   1.000  Al
  Al744    1.0000 0.43750  0.56077  0.82159  Biso   1.000  Al
  Al745    1.0000 0.37500  0.62308  0.64317  Biso   1.000  Al
  Al746    1.0000 0.37500  0.68538  0.73238  Biso   1.000  Al
  Al747    1.0000 0.43750  0.62308  0.73238  Biso   1.000  Al
  Al748    1.0000 0.43750  0.68538  0.64317  Biso   1.000  Al
  Al749    1.0000 0.37500  0.62308  0.82159  Biso   1.000  Al
  Al750    1.0000 0.37500  0.68538  0.91079  Biso   1.000  Al
  Al751    1.0000 0.43750  0.62308  0.91079  Biso   1.000  Al
  Al752    1.0000 0.43750  0.68538  0.82159  Biso   1.000  Al
  Al753    1.0000 0.37500  0.74769  0.64317  Biso   1.000  Al
  Al754    1.0000 0.37500  0.81000  0.73238  Biso   1.000  Al
  Al755    1.0000 0.43750  0.74769  0.73238  Biso   1.000  Al
  Al756    1.0000 0.43750  0.81000  0.64317  Biso   1.000  Al
  Al757    1.0000 0.37500  0.74769  0.82159  Biso   1.000  Al
  Al758    1.0000 0.37500  0.81000  0.91079  Biso   1.000  Al
  Al759    1.0000 0.43750  0.74769  0.91079  Biso   1.000  Al
  Al760    1.0000 0.43750  0.81000  0.82159  Biso   1.000  Al
  Al761    1.0000 0.37500  0.87231  0.64317  Biso   1.000  Al
  Al762    1.0000 0.37500  0.93462  0.73238  Biso   1.000  Al
  Al763    1.0000 0.43750  0.87231  0.73238  Biso   1.000  Al
  Al764    1.0000 0.43750  0.93462  0.64317  Biso   1.000  Al
  Al765    1.0000 0.37500  0.87231  0.82159  Biso   1.000  Al
  Al766    1.0000 0.37500  0.93462  0.91079  Biso   1.000  Al
  Al767    1.0000 0.43750  0.87231  0.91079  Biso   1.000  Al
  Al768    1.0000 0.43750  0.93462  0.82159  Biso   1.000  Al
  Al769    1.0000 0.50000  0.00000  0.64317  Biso   1.000  Al
  Al770    1.0000 0.50000  0.06231  0.73238  Biso   1.000  Al
  Al771    1.0000 0.56250  0.00000  0.73238  Biso   1.000  Al
  Al772    1.0000 0.56250  0.06231  0.64317  Biso   1.000  Al
  Al773    1.0000 0.50000  0.00000  0.82159  Biso   1.000  Al
  Al774    1.0000 0.50000  0.06231  0.91079  Biso   1.000  Al
  Al775    1.0000 0.56250  0.00000  0.91079  Biso   1.000  Al
  Al776    1.0000 0.56250  0.06231  0.82159  Biso   1.000  Al
  Al777    1.0000 0.50000  0.12462  0.64317  Biso   1.000  Al
  Al778    1.0000 0.50000  0.18692  0.73238  Biso   1.000  Al
  Al779    1.0000 0.56250  0.12462  0.73238  Biso   1.000  Al
  Al780    1.0000 0.56250  0.18692  0.64317  Biso   1.000  Al
  Al781    1.0000 0.50000  0.12462  0.82159  Biso   1.000  Al
  Al782    1.0000 0.50000  0.18692  0.91079  Biso   1.000  Al
  Al783    1.0000 0.56250  0.12462  0.91079  Biso   1.000  Al
  Al784    1.0000 0.56250  0.18692  0.82159  Biso   1.000  Al
  Al785    1.0000 0.50000  0.24923  0.64317  Biso   1.000  Al
  Al786    1.0000 0.50000  0.31154  0.73238  Biso   1.000  Al
  Al787    1.0000 0.56250  0.24923  0.73238  Biso   1.000  Al
  Al788    1.0000 0.56250  0.31154  0.64317  Biso   1.000  Al
  Al789    1.0000 0.50000  0.24923  0.82159  Biso   1.000  Al
  Al790    1.0000 0.50000  0.31154  0.91079  Biso   1.000  Al
  Al791    1.0000 0.56250  0.24923  0.91079  Biso   1.000  Al
  Al792    1.0000 0.56250  0.31154  0.82159  Biso   1.000  Al
  Al793    1.0000 0.50000  0.37385  0.64317  Biso   1.000  Al
  Al794    1.0000 0.50000  0.43615  0.73238  Biso   1.000  Al
  Al795    1.0000 0.56250  0.37385  0.73238  Biso   1.000  Al
  Al796    1.0000 0.56250  0.43615  0.64317  Biso   1.000  Al
  Al797    1.0000 0.50000  0.37385  0.82159  Biso   1.000  Al
  Al798    1.0000 0.50000  0.43615  0.91079  Biso   1.000  Al
  Al799    1.0000 0.56250  0.37385  0.91079  Biso   1.000  Al
  Al800    1.0000 0.56250  0.43615  0.82159  Biso   1.000  Al
  Al801    1.0000 0.50000  0.49846  0.64317  Biso   1.000  Al
  Al802    1.0000 0.50000  0.56077  0.73238  Biso   1.000  Al
  Al803    1.0000 0.56250  0.49846  0.73238  Biso   1.000  Al
  Al804    1.0000 0.56250  0.56077  0.64317  Biso   1.000  Al
  Al805    1.0000 0.50000  0.49846  0.82159  Biso   1.000  Al
  Al806    1.0000 0.50000  0.56077  0.91079  Biso   1.000  Al
  Al807    1.0000 0.56250  0.49846  0.91079  Biso   1.000  Al
  Al808    1.0000 0.56250  0.56077  0.82159  Biso   1.000  Al
  Al809    1.0000 0.50000  0.62308  0.64317  Biso   1.000  Al
  Al810    1.0000 0.50000  0.68538  0.73238  Biso   1.000  Al
  Al811    1.0000 0.56250  0.62308  0.73238  Biso   1.000  Al
  Al812    1.0000 0.56250  0.68538  0.64317  Biso   1.000  Al
  Al813    1.0000 0.50000  0.62308  0.82159  Biso   1.000  Al
  Al814    1.0000 0.50000  0.68538  0.91079  Biso   1.000  Al
  Al815    1.0000 0.56250  0.62308  0.91079  Biso   1.000  Al
  Al816    1.0000 0.56250  0.68538  0.82159  Biso   1.000  Al
  Al817    1.0000 0.50000  0.74769  0.64317  Biso   1.000  Al
  Al818    1.0000 0.50000  0.81000  0.73238  Biso   1.000  Al
  Al819    1.0000 0.56250  0.74769  0.73238  Biso   1.000  Al
  Al820    1.0000 0.56250  0.81000  0.64317  Biso   1.000  Al
  Al821    1.0000 0.50000  0.74769  0.82159  Biso   1.000  Al
  Al822    1.0000 0.50000  0.81000  0.91079  Biso   1.000  Al
  Al823    1.0000 0.56250  0.74769  0.91079  Biso   1.000  Al
  Al824    1.0000 0.56250  0.81000  0.82159  Biso   1.000  Al
  Al825    1.0000 0.50000  0.87231  0.64317  Biso   1.000  Al
  Al826    1.0000 0.50000  0.93462  0.73238  Biso   1.000  Al
  Al827    1.0000 0.56250  0.87231  0.73238  Biso   1.000  Al
  Al828    1.0000 0.56250  0.93462  0.64317  Biso   1.000  Al
  Al829    1.0000 0.50000  0.87231  0.82159  Biso   1.000  Al
  Al830    1.0000 0.50000  0.93462  0.91079  Biso   1.000  Al
  Al831    1.0000 0.56250  0.87231  0.91079  Biso   1.000  Al
  Al832    1.0000 0.56250  0.93462  0.82159  Biso   1.000  Al
  Al833    1.0000 0.62500  0.00000  0.64317  Biso   1.000  Al
  Al834    1.0000 0.62500  0.06231  0.73238  Biso   1.000  Al
  Al835    1.0000 0.68750  0.00000  0.73238  Biso   1.000  Al
  Al836    1.0000 0.68750  0.06231  0.64317  Biso   1.000  Al
  Al837    1.0000 0.62500  0.00000  0.82159  Biso   1.000  Al
  Al838    1.0000 0.62500  0.06231  0.91079  Biso   1.000  Al
  Al839    1.0000 0.68750  0.00000  0.91079  Biso   1.000  Al
  Al840    1.0000 0.68750  0.06231  0.82159  Biso   1.000  Al
  Al841    1.0000 0.62500  0.12462  0.64317  Biso   1.000  Al
  Al842    1.0000 0.62500  0.18692  0.73238  Biso   1.000  Al
  Al843    1.0000 0.68750  0.12462  0.73238  Biso   1.000  Al
  Al844    1.0000 0.68750  0.18692  0.64317  Biso   1.000  Al
  Al845    1.0000 0.62500  0.12462  0.82159  Biso   1.000  Al
  Al846    1.0000 0.62500  0.18692  0.91079  Biso   1.000  Al
  Al847    1.0000 0.68750  0.12462  0.91079  Biso   1.000  Al
  Al848    1.0000 0.68750  0.18692  0.82159  Biso   1.000  Al
  Al849    1.0000 0.62500  0.24923  0.64317  Biso   1.000  Al
  Al850    1.0000 0.62500  0.31154  0.73238  Biso   1.000  Al
  Al851    1.0000 0.68750  0.24923  0.73238  Biso   1.000  Al
  Al852    1.0000 0.68750  0.31154  0.64317  Biso   1.000  Al
  Al853    1.0000 0.62500  0.24923  0.82159  Biso   1.000  Al
  Al854    1.0000 0.62500  0.31154  0.91079  Biso   1.000  Al
  Al855    1.0000 0.68750  0.24923  0.91079  Biso   1.000  Al
  Al856    1.0000 0.68750  0.31154  0.82159  Biso   1.000  Al
  Al857    1.0000 0.62500  0.37385  0.64317  Biso   1.000  Al
  Al858    1.0000 0.62500  0.43615  0.73238  Biso   1.000  Al
  Al859    1.0000 0.68750  0.37385  0.73238  Biso   1.000  Al
  Al860    1.0000 0.68750  0.43615  0.64317  Biso   1.000  Al
  Al861    1.0000 0.62500  0.37385  0.82159  Biso   1.000  Al
  Al862    1.0000 0.62500  0.43615  0.91079  Biso   1.000  Al
  Al863    1.0000 0.68750  0.37385  0.91079  Biso   1.000  Al
  Al864    1.0000 0.68750  0.43615  0.82159  Biso   1.000  Al
  Al865    1.0000 0.62500  0.49846  0.64317  Biso   1.000  Al
  Al866    1.0000 0.62500  0.56077  0.73238  Biso   1.000  Al
  Al867    1.0000 0.68750  0.49846  0.73238  Biso   1.000  Al
  Al868    1.0000 0.68750  0.56077  0.64317  Biso   1.000  Al
  Al869    1.0000 0.62500  0.49846  0.82159  Biso   1.000  Al
  Al870    1.0000 0.62500  0.56077  0.91079  Biso   1.000  Al
  Al871    1.0000 0.68750  0.49846  0.91079  Biso   1.000  Al
  Al872    1.0000 0.68750  0.56077  0.82159  Biso   1.000  Al
  Al873    1.0000 0.62500  0.62308  0.64317  Biso   1.000  Al
  Al874    1.0000 0.62500  0.68538  0.73238  Biso   1.000  Al
  Al875    1.0000 0.68750  0.62308  0.73238  Biso   1.000  Al
  Al876    1.0000 0.68750  0.68538  0.64317  Biso   1.000  Al
  Al877    1.0000 0.62500  0.62308  0.82159  Biso   1.000  Al
  Al878    1.0000 0.62500  0.68538  0.91079  Biso   1.000  Al
  Al879    1.0000 0.68750  0.62308  0.91079  Biso   1.000  Al
  Al880    1.0000 0.68750  0.68538  0.82159  Biso   1.000  Al
  Al881    1.0000 0.62500  0.74769  0.64317  Biso   1.000  Al
  Al882    1.0000 0.62500  0.81000  0.73238  Biso   1.000  Al
  Al883    1.0000 0.68750  0.74769  0.73238  Biso   1.000  Al
  Al884    1.0000 0.68750  0.81000  0.64317  Biso   1.000  Al
  Al885    1.0000 0.62500  0.74769  0.82159  Biso   1.000  Al
  Al886    1.0000 0.62500  0.81000  0.91079  Biso   1.000  Al
  Al887    1.0000 0.68750  0.74769  0.91079  Biso   1.000  Al
  Al888    1.0000 0.68750  0.81000  0.82159  Biso   1.000  Al
  Al889    1.0000 0.62500  0.87231  0.64317  Biso   1.000  Al
  Al890    1.0000 0.62500  0.93462  0.73238  Biso   1.000  Al
  Al891    1.0000 0.68750  0.87231  0.73238  Biso   1.000  Al
  Al892    1.0000 0.68750  0.93462  0.64317  Biso   1.000  Al
  Al893    1.0000 0.62500  0.87231  0.82159  Biso   1.000  Al
  Al894    1.0000 0.62500  0.93462  0.91079  Biso   1.000  Al
  Al895    1.0000 0.68750  0.87231  0.91079  Biso   1.000  Al
  Al896    1.0000 0.68750  0.93462  0.82159  Biso   1.000  Al
  Al897    1.0000 0.75000  0.00000  0.64317  Biso   1.000  Al
  Al898    1.0000 0.75000  0.06231  0.73238  Biso   1.000  Al
  Al899    1.0000 0.81250  0.00000  0.73238  Biso   1.000  Al
  Al900    1.0000 0.81250  0.06231  0.64317  Biso   1.000  Al
  Al901    1.0000 0.75000  0.00000  0.82159  Biso   1.000  Al
  Al902    1.0000 0.75000  0.06231  0.91079  Biso   1.000  Al
  Al903    1.0000 0.81250  0.00000  0.91079  Biso   1.000  Al
  Al904    1.0000 0.81250  0.06231  0.82159  Biso   1.000  Al
  Al905    1.0000 0.75000  0.12462  0.64317  Biso   1.000  Al
  Al906    1.0000 0.75000  0.18692  0.73238  Biso   1.000  Al
  Al907    1.0000 0.81250  0.12462  0.73238  Biso   1.000  Al
  Al908    1.0000 0.81250  0.18692  0.64317  Biso   1.000  Al
  Al909    1.0000 0.75000  0.12462  0.82159  Biso   1.000  Al
  Al910    1.0000 0.75000  0.18692  0.91079  Biso   1.000  Al
  Al911    1.0000 0.81250  0.12462  0.91079  Biso   1.000  Al
  Al912    1.0000 0.81250  0.18692  0.82159  Biso   1.000  Al
  Al913    1.0000 0.75000  0.24923  0.64317  Biso   1.000  Al
  Al914    1.0000 0.75000  0.31154  0.73238  Biso   1.000  Al
  Al915    1.0000 0.81250  0.24923  0.73238  Biso   1.000  Al
  Al916    1.0000 0.81250  0.31154  0.64317  Biso   1.000  Al
  Al917    1.0000 0.75000  0.24923  0.82159  Biso   1.000  Al
  Al918    1.0000 0.75000  0.31154  0.91079  Biso   1.000  Al
  Al919    1.0000 0.81250  0.24923  0.91079  Biso   1.000  Al
  Al920    1.0000 0.81250  0.31154  0.82159  Biso   1.000  Al
  Al921    1.0000 0.75000  0.37385  0.64317  Biso   1.000  Al
  Al922    1.0000 0.75000  0.43615  0.73238  Biso   1.000  Al
  Al923    1.0000 0.81250  0.37385  0.73238  Biso   1.000  Al
  Al924    1.0000 0.81250  0.43615  0.64317  Biso   1.000  Al
  Al925    1.0000 0.75000  0.37385  0.82159  Biso   1.000  Al
  Al926    1.0000 0.75000  0.43615  0.91079  Biso   1.000  Al
  Al927    1.0000 0.81250  0.37385  0.91079  Biso   1.000  Al
  Al928    1.0000 0.81250  0.43615  0.82159  Biso   1.000  Al
  Al929    1.0000 0.75000  0.49846  0.64317  Biso   1.000  Al
  Al930    1.0000 0.75000  0.56077  0.73238  Biso   1.000  Al
  Al931    1.0000 0.81250  0.49846  0.73238  Biso   1.000  Al
  Al932    1.0000 0.81250  0.56077  0.64317  Biso   1.000  Al
  Al933    1.0000 0.75000  0.49846  0.82159  Biso   1.000  Al
  Al934    1.0000 0.75000  0.56077  0.91079  Biso   1.000  Al
  Al935    1.0000 0.81250  0.49846  0.91079  Biso   1.000  Al
  Al936    1.0000 0.81250  0.56077  0.82159  Biso   1.000  Al
  Al937    1.0000 0.75000  0.62308  0.64317  Biso   1.000  Al
  Al938    1.0000 0.75000  0.68538  0.73238  Biso   1.000  Al
  Al939    1.0000 0.81250  0.62308  0.73238  Biso   1.000  Al
  Al940    1.0000 0.81250  0.68538  0.64317  Biso   1.000  Al
  Al941    1.0000 0.75000  0.62308  0.82159  Biso   1.000  Al
  Al942    1.0000 0.75000  0.68538  0.91079  Biso   1.000  Al
  Al943    1.0000 0.81250  0.62308  0.91079  Biso   1.000  Al
  Al944    1.0000 0.81250  0.68538  0.82159  Biso   1.000  Al
  Al945    1.0000 0.75000  0.74769  0.64317  Biso   1.000  Al
  Al946    1.0000 0.75000  0.81000  0.73238  Biso   1.000  Al
  Al947    1.0000 0.81250  0.74769  0.73238  Biso   1.000  Al
  Al948    1.0000 0.81250  0.81000  0.64317  Biso   1.000  Al
  Al949    1.0000 0.75000  0.74769  0.82159  Biso   1.000  Al
  Al950    1.0000 0.75000  0.81000  0.91079  Biso   1.000  Al
  Al951    1.0000 0.81250  0.74769  0.91079  Biso   1.000  Al
  Al952    1.0000 0.81250  0.81000  0.82159  Biso   1.000  Al
  Al953    1.0000 0.75000  0.87231  0.64317  Biso   1.000  Al
  Al954    1.0000 0.75000  0.93462  0.73238  Biso   1.000  Al
  Al955    1.0000 0.81250  0.87231  0.73238  Biso   1.000  Al
  Al956    1.0000 0.81250  0.93462  0.64317  Biso   1.000  Al
  Al957    1.0000 0.75000  0.87231  0.82159  Biso   1.000  Al
  Al958    1.0000 0.75000  0.93462  0.91079  Biso   1.000  Al
  Al959    1.0000 0.81250  0.87231  0.91079  Biso   1.000  Al
  Al960    1.0000 0.81250  0.93462  0.82159  Biso   1.000  Al
  Al961    1.0000 0.87500  0.00000  0.64317  Biso   1.000  Al
  Al962    1.0000 0.87500  0.06231  0.73238  Biso   1.000  Al
  Al963    1.0000 0.93750  0.00000  0.73238  Biso   1.000  Al
  Al964    1.0000 0.93750  0.06231  0.64317  Biso   1.000  Al
  Al965    1.0000 0.87500  0.00000  0.82159  Biso   1.000  Al
  Al966    1.0000 0.87500  0.06231  0.91079  Biso   1.000  Al
  Al967    1.0000 0.93750  0.00000  0.91079  Biso   1.000  Al
  Al968    1.0000 0.93750  0.06231  0.82159  Biso   1.000  Al
  Al969    1.0000 0.87500  0.12462  0.64317  Biso   1.000  Al
  Al970    1.0000 0.87500  0.18692  0.73238  Biso   1.000  Al
  Al971    1.0000 0.93750  0.12462  0.73238  Biso   1.000  Al
  Al972    1.0000 0.93750  0.18692  0.64317  Biso   1.000  Al
  Al973    1.0000 0.87500  0.12462  0.82159  Biso   1.000  Al
  Al974    1.0000 0.87500  0.18692  0.91079  Biso   1.000  Al
  Al975    1.0000 0.93750  0.12462  0.91079  Biso   1.000  Al
  Al976    1.0000 0.93750  0.18692  0.82159  Biso   1.000  Al
  Al977    1.0000 0.87500  0.24923  0.64317  Biso   1.000  Al
  Al978    1.0000 0.87500  0.31154  0.73238  Biso   1.000  Al
  Al979    1.0000 0.93750  0.24923  0.73238  Biso   1.000  Al
  Al980    1.0000 0.93750  0.31154  0.64317  Biso   1.000  Al
  Al981    1.0000 0.87500  0.24923  0.82159  Biso   1.000  Al
  Al982    1.0000 0.87500  0.31154  0.91079  Biso   1.000  Al
  Al983    1.0000 0.93750  0.24923  0.91079  Biso   1.000  Al
  Al984    1.0000 0.93750  0.31154  0.82159  Biso   1.000  Al
  Al985    1.0000 0.87500  0.37385  0.64317  Biso   1.000  Al
  Al986    1.0000 0.87500  0.43615  0.73238  Biso   1.000  Al
  Al987    1.0000 0.93750  0.37385  0.73238  Biso   1.000  Al
  Al988    1.0000 0.93750  0.43615  0.64317  Biso   1.000  Al
  Al989    1.0000 0.87500  0.37385  0.82159  Biso   1.000  Al
  Al990    1.0000 0.87500  0.43615  0.91079  Biso   1.000  Al
  Al991    1.0000 0.93750  0.37385  0.91079  Biso   1.000  Al
  Al992    1.0000 0.93750  0.43615  0.82159  Biso   1.000  Al
  Al993    1.0000 0.87500  0.49846  0.64317  Biso   1.000  Al
  Al994    1.0000 0.87500  0.56077  0.73238  Biso   1.000  Al
  Al995    1.0000 0.93750  0.49846  0.73238  Biso   1.000  Al
  Al996    1.0000 0.93750  0.56077  0.64317  Biso   1.000  Al
  Al997    1.0000 0.87500  0.49846  0.82159  Biso   1.000  Al
  Al998    1.0000 0.87500  0.56077  0.91079  Biso   1.000  Al
  Al999    1.0000 0.93750  0.49846  0.91079  Biso   1.000  Al
  Al1000   1.0000 0.93750  0.56077  0.82159  Biso   1.000  Al
  Al1001   1.0000 0.87500  0.62308  0.64317  Biso   1.000  Al
  Al1002   1.0000 0.87500  0.68538  0.73238  Biso   1.000  Al
  Al1003   1.0000 0.93750  0.62308  0.73238  Biso   1.000  Al
  Al1004   1.0000 0.93750  0.68538  0.64317  Biso   1.000  Al
  Al1005   1.0000 0.87500  0.62308  0.82159  Biso   1.000  Al
  Al1006   1.0000 0.87500  0.68538  0.91079  Biso   1.000  Al
  Al1007   1.0000 0.93750  0.62308  0.91079  Biso   1.000  Al
  Al1008   1.0000 0.93750  0.68538  0.82159  Biso   1.000  Al
  Al1009   1.0000 0.87500  0.74769  0.64317  Biso   1.000  Al
  Al1010   1.0000 0.87500  0.81000  0.73238  Biso   1.000  Al
  Al1011   1.0000 0.93750  0.74769  0.73238  Biso   1.000  Al
  Al1012   1.0000 0.93750  0.81000  0.64317  Biso   1.000  Al
  Al1013   1.0000 0.87500  0.74769  0.82159  Biso   1.000  Al
  Al1014   1.0000 0.87500  0.81000  0.91079  Biso   1.000  Al
  Al1015   1.0000 0.93750  0.74769  0.91079  Biso   1.000  Al
  Al1016   1.0000 0.93750  0.81000  0.82159  Biso   1.000  Al
  Al1017   1.0000 0.87500  0.87231  0.64317  Biso   1.000  Al
  Al1018   1.0000 0.87500  0.93462  0.73238  Biso   1.000  Al
  Al1019   1.0000 0.93750  0.87231  0.73238  Biso   1.000  Al
  Al1020   1.0000 0.93750  0.93462  0.64317  Biso   1.000  Al
  Al1021   1.0000 0.87500  0.87231  0.82159  Biso   1.000  Al
  Al1022   1.0000 0.87500  0.93462  0.91079  Biso   1.000  Al
  Al1023   1.0000 0.93750  0.87231  0.91079  Biso   1.000  Al
  Al1024   1.0000 0.93750  0.93462  0.82159  Biso   1.000  Al
